Oc1cc(-c2c[nH]c(NC(c3ccccc3)c3ccccc3)[nH+]2)c(O)cc1Br
     RDKit          3D

 47 50  0  0  1  0  0  0  0  0999 V2000
  130.2687  132.2598  151.8223 O   0  0  0  0  0  0  0  0  0  0  0  0
  130.4758  131.6622  153.0263 C   0  0  0  0  0  0  0  0  0  0  0  0
  130.1437  132.3275  154.1945 C   0  0  0  0  0  0  0  0  0  0  0  0
  130.3568  131.7146  155.4268 C   0  0  0  0  0  0  0  0  0  0  0  0
  130.0029  132.4225  156.6812 C   0  0  0  0  0  0  0  0  0  0  0  0
  129.1129  131.9992  157.6126 C   0  0  0  0  0  0  0  0  0  0  0  0
  129.0867  132.9536  158.6018 N   0  0  0  0  0  0  0  0  0  0  0  0
  128.5416  132.9351  159.4038 H   0  0  0  0  0  0  0  0  0  0  0  0
  129.9692  133.9275  158.2492 C   0  0  0  0  0  0  0  0  0  0  0  0
  130.2443  135.0699  158.9813 N   0  0  0  0  0  0  0  0  0  0  0  0
  129.5582  135.3073  160.2538 C   0  0  0  0  0  0  0  0  0  0  0  0
  130.0332  136.6096  160.8451 C   0  0  0  0  0  0  0  0  0  0  0  0
  131.1199  136.6252  161.6995 C   0  0  0  0  0  0  0  0  0  0  0  0
  131.5584  137.8204  162.2381 C   0  0  0  0  0  0  0  0  0  0  0  0
  130.9037  138.9988  161.9301 C   0  0  0  0  0  0  0  0  0  0  0  0
  129.8141  138.9821  161.0805 C   0  0  0  0  0  0  0  0  0  0  0  0
  129.3788  137.7878  160.5377 C   0  0  0  0  0  0  0  0  0  0  0  0
  128.0714  135.3754  160.0177 C   0  0  0  0  0  0  0  0  0  0  0  0
  127.1951  134.9723  161.0079 C   0  0  0  0  0  0  0  0  0  0  0  0
  125.8312  135.0393  160.7930 C   0  0  0  0  0  0  0  0  0  0  0  0
  125.3437  135.4994  159.5842 C   0  0  0  0  0  0  0  0  0  0  0  0
  126.2201  135.8975  158.5918 C   0  0  0  0  0  0  0  0  0  0  0  0
  127.5839  135.8355  158.8088 C   0  0  0  0  0  0  0  0  0  0  0  0
  130.5120  133.6084  157.0994 N   0  0  0  0  0  0  0  0  0  0  0  0
  131.1723  134.1361  156.6236 H   0  0  0  0  0  0  0  0  0  0  0  0
  130.9108  130.4320  155.4776 C   0  0  0  0  0  0  0  0  0  0  0  0
  131.1265  129.8304  156.6777 O   0  0  0  0  0  0  0  0  0  0  0  0
  131.2339  129.7732  154.3036 C   0  0  0  0  0  0  0  0  0  0  0  0
  131.0204  130.3863  153.0822 C   0  0  0  0  0  0  0  0  0  0  0  0
  131.4721  129.4839  151.4829 Br  0  0  0  0  0  0  0  0  0  0  0  0
  130.5311  131.7193  151.0647 H   0  0  0  0  0  0  0  0  0  0  0  0
  129.7204  133.3202  154.1501 H   0  0  0  0  0  0  0  0  0  0  0  0
  128.5324  131.0890  157.5811 H   0  0  0  0  0  0  0  0  0  0  0  0
  130.8915  135.7131  158.6518 H   0  0  0  0  0  0  0  0  0  0  0  0
  129.7797  134.4929  160.9435 H   0  0  0  0  0  0  0  0  0  0  0  0
  131.6284  135.7041  161.9430 H   0  0  0  0  0  0  0  0  0  0  0  0
  132.4097  137.8330  162.9026 H   0  0  0  0  0  0  0  0  0  0  0  0
  131.2439  139.9316  162.3550 H   0  0  0  0  0  0  0  0  0  0  0  0
  129.3026  139.9026  160.8406 H   0  0  0  0  0  0  0  0  0  0  0  0
  128.5270  137.7749  159.8737 H   0  0  0  0  0  0  0  0  0  0  0  0
  127.5761  134.6086  161.9507 H   0  0  0  0  0  0  0  0  0  0  0  0
  125.1465  134.7278  161.5681 H   0  0  0  0  0  0  0  0  0  0  0  0
  124.2783  135.5474  159.4146 H   0  0  0  0  0  0  0  0  0  0  0  0
  125.8392  136.2566  157.6473 H   0  0  0  0  0  0  0  0  0  0  0  0
  128.2686  136.1463  158.0335 H   0  0  0  0  0  0  0  0  0  0  0  0
  130.8656  130.3665  157.4389 H   0  0  0  0  0  0  0  0  0  0  0  0
  131.6575  128.7804  154.3416 H   0  0  0  0  0  0  0  0  0  0  0  0
  1  2  1  0
  1 31  1  0
  2 29  2  0
  2  3  1  0
  3  4  2  0
  3 32  1  0
  4  5  1  0
  4 26  1  0
  5 24  1  0
  5  6  2  0
  6  7  1  0
  6 33  1  0
  7  8  1  0
  7  9  1  0
  9 10  1  0
  9 24  2  0
 10 11  1  0
 10 34  1  0
 11 12  1  0
 11 18  1  0
 11 35  1  0
 12 17  1  0
 12 13  2  0
 13 14  1  0
 13 36  1  0
 14 15  2  0
 14 37  1  0
 15 16  1  0
 15 38  1  0
 16 17  2  0
 16 39  1  0
 17 40  1  0
 18 23  1  0
 18 19  2  0
 19 20  1  0
 19 41  1  0
 20 21  2  0
 20 42  1  0
 21 22  1  0
 21 43  1  0
 22 23  2  0
 22 44  1  0
 23 45  1  0
 24 25  1  0
 26 27  1  0
 26 28  2  0
 27 46  1  0
 28 29  1  0
 28 47  1  0
 29 30  1  0
M  CHG  1  24   1
M  END
>  <DOCK_score>  (1) 
-56.983063

>  <SMILES>  (1) 
Oc1cc(-c2c[nH]c(NC(c3ccccc3)c3ccccc3)[nH+]2)c(O)cc1Br

$$$$
