Cc1ccc([C@@H](Cc2nn(C)cc2C2=CCC=CC2)Nc2[nH]cc(-c3ccc(N)cc3)[nH+]2)cc1
     RDKit          3D

 65 69  0  0  1  0  0  0  0  0999 V2000
  134.1431  134.9366  163.7468 C   0  0  0  0  0  0  0  0  0  0  0  0
  132.9648  135.0933  162.8205 C   0  0  0  0  0  0  0  0  0  0  0  0
  131.6871  134.8285  163.2766 C   0  0  0  0  0  0  0  0  0  0  0  0
  130.6063  134.9718  162.4266 C   0  0  0  0  0  0  0  0  0  0  0  0
  130.8034  135.3799  161.1207 C   0  0  0  0  0  0  0  0  0  0  0  0
  129.6252  135.5357  160.1940 C   0  0  1  0  0  0  0  0  0  0  0  0
  128.8427  134.8328  160.4798 H   0  0  0  0  0  0  0  0  0  0  0  0
  129.0868  136.9646  160.2892 C   0  0  0  0  0  0  0  0  0  0  0  0
  128.6527  137.2447  161.7048 C   0  0  0  0  0  0  0  0  0  0  0  0
  127.7343  136.5945  162.3685 N   0  0  0  0  0  0  0  0  0  0  0  0
  127.6252  137.1563  163.6462 N   0  0  0  0  0  0  0  0  0  0  0  0
  126.7093  136.7166  164.7018 C   0  0  0  0  0  0  0  0  0  0  0  0
  128.5124  138.1669  163.7406 C   0  0  0  0  0  0  0  0  0  0  0  0
  129.1671  138.2543  162.5443 C   0  0  0  0  0  0  0  0  0  0  0  0
  130.2263  139.2262  162.1959 C   0  0  0  0  0  0  0  0  0  0  0  0
  131.4779  138.9106  162.4426 C   0  0  0  0  0  0  0  0  0  0  0  0
  132.6206  139.8283  162.1266 C   0  0  0  0  0  0  0  0  0  0  0  0
  132.1513  141.2424  161.9644 C   0  0  0  0  0  0  0  0  0  0  0  0
  130.9155  141.5539  161.7208 C   0  0  0  0  0  0  0  0  0  0  0  0
  129.8277  140.5323  161.5820 C   0  0  0  0  0  0  0  0  0  0  0  0
  130.0470  135.2635  158.8177 N   0  0  0  0  0  0  0  0  0  0  0  0
  129.9775  133.9758  158.3142 C   0  0  0  0  0  0  0  0  0  0  0  0
  129.5323  132.8828  158.9917 N   0  0  0  0  0  0  0  0  0  0  0  0
  129.2098  132.8657  159.9063 H   0  0  0  0  0  0  0  0  0  0  0  0
  129.6242  131.8074  158.1402 C   0  0  0  0  0  0  0  0  0  0  0  0
  130.1225  132.2746  156.9690 C   0  0  0  0  0  0  0  0  0  0  0  0
  130.3929  131.4699  155.7523 C   0  0  0  0  0  0  0  0  0  0  0  0
  129.7393  131.7690  154.5579 C   0  0  0  0  0  0  0  0  0  0  0  0
  129.9965  131.0233  153.4270 C   0  0  0  0  0  0  0  0  0  0  0  0
  130.8981  129.9669  153.4801 C   0  0  0  0  0  0  0  0  0  0  0  0
  131.1534  129.2091  152.3345 N   0  0  0  0  0  0  0  0  0  0  0  0
  131.5467  129.6633  154.6712 C   0  0  0  0  0  0  0  0  0  0  0  0
  131.2968  130.4099  155.8033 C   0  0  0  0  0  0  0  0  0  0  0  0
  130.3243  133.6092  157.1044 N   0  0  0  0  0  0  0  0  0  0  0  0
  130.6719  134.1980  156.4164 H   0  0  0  0  0  0  0  0  0  0  0  0
  132.0816  135.6396  160.6631 C   0  0  0  0  0  0  0  0  0  0  0  0
  133.1619  135.5013  161.5145 C   0  0  0  0  0  0  0  0  0  0  0  0
  134.5261  133.9185  163.6785 H   0  0  0  0  0  0  0  0  0  0  0  0
  134.9259  135.6393  163.4611 H   0  0  0  0  0  0  0  0  0  0  0  0
  133.8294  135.1389  164.7710 H   0  0  0  0  0  0  0  0  0  0  0  0
  131.5332  134.5094  164.2968 H   0  0  0  0  0  0  0  0  0  0  0  0
  129.6080  134.7646  162.7828 H   0  0  0  0  0  0  0  0  0  0  0  0
  128.2346  137.0773  159.6189 H   0  0  0  0  0  0  0  0  0  0  0  0
  129.8693  137.6675  160.0033 H   0  0  0  0  0  0  0  0  0  0  0  0
  127.1959  135.9551  165.3110 H   0  0  0  0  0  0  0  0  0  0  0  0
  126.4423  137.5675  165.3286 H   0  0  0  0  0  0  0  0  0  0  0  0
  125.8083  136.3006  164.2510 H   0  0  0  0  0  0  0  0  0  0  0  0
  128.6747  138.7947  164.6042 H   0  0  0  0  0  0  0  0  0  0  0  0
  131.6918  137.9518  162.8912 H   0  0  0  0  0  0  0  0  0  0  0  0
  133.0962  139.5014  161.2019 H   0  0  0  0  0  0  0  0  0  0  0  0
  133.3479  139.7840  162.9373 H   0  0  0  0  0  0  0  0  0  0  0  0
  132.8752  142.0388  162.0546 H   0  0  0  0  0  0  0  0  0  0  0  0
  130.6581  142.5978  161.6179 H   0  0  0  0  0  0  0  0  0  0  0  0
  128.9273  140.9001  162.0740 H   0  0  0  0  0  0  0  0  0  0  0  0
  129.6171  140.3763  160.5239 H   0  0  0  0  0  0  0  0  0  0  0  0
  130.3752  135.9855  158.2591 H   0  0  0  0  0  0  0  0  0  0  0  0
  129.3518  130.7860  158.3618 H   0  0  0  0  0  0  0  0  0  0  0  0
  129.0351  132.5868  154.5175 H   0  0  0  0  0  0  0  0  0  0  0  0
  129.4934  131.2572  152.5003 H   0  0  0  0  0  0  0  0  0  0  0  0
  131.7826  128.4721  152.3704 H   0  0  0  0  0  0  0  0  0  0  0  0
  130.7010  129.4208  151.5025 H   0  0  0  0  0  0  0  0  0  0  0  0
  132.2467  128.8417  154.7103 H   0  0  0  0  0  0  0  0  0  0  0  0
  131.8013  130.1738  156.7285 H   0  0  0  0  0  0  0  0  0  0  0  0
  132.2361  135.9541  159.6415 H   0  0  0  0  0  0  0  0  0  0  0  0
  134.1602  135.7078  161.1580 H   0  0  0  0  0  0  0  0  0  0  0  0
  1  2  1  0
  1 38  1  0
  1 39  1  0
  1 40  1  0
  2 37  2  0
  2  3  1  0
  3  4  2  0
  3 41  1  0
  4  5  1  0
  4 42  1  0
  5  6  1  0
  5 36  2  0
  6  7  1  1
  6  8  1  0
  6 21  1  0
  8  9  1  0
  8 43  1  0
  8 44  1  0
  9 14  1  0
  9 10  2  0
 10 11  1  0
 11 12  1  0
 11 13  1  0
 12 45  1  0
 12 46  1  0
 12 47  1  0
 13 14  2  0
 13 48  1  0
 14 15  1  0
 15 20  1  0
 15 16  2  0
 16 17  1  0
 16 49  1  0
 17 18  1  0
 17 50  1  0
 17 51  1  0
 18 19  2  0
 18 52  1  0
 19 20  1  0
 19 53  1  0
 20 54  1  0
 20 55  1  0
 21 56  1  0
 22 21  1  0
 22 34  2  0
 22 23  1  0
 23 24  1  0
 23 25  1  0
 25 26  2  0
 25 57  1  0
 26 27  1  0
 26 34  1  0
 27 33  1  0
 27 28  2  0
 28 29  1  0
 28 58  1  0
 29 30  2  0
 29 59  1  0
 30 31  1  0
 30 32  1  0
 31 60  1  0
 31 61  1  0
 32 33  2  0
 32 62  1  0
 33 63  1  0
 34 35  1  0
 36 37  1  0
 36 64  1  0
 37 65  1  0
M  CHG  1  34   1
M  END
>  <DOCK_score>  (1) 
-57.144508

>  <SMILES>  (1) 
Cc1ccc([C@@H](Cc2nn(C)cc2C2=CCC=CC2)Nc2[nH]cc(-c3ccc(N)cc3)[nH+]2)cc1

$$$$
