O=C1CC[C@H](NC(NC2CCCC2)=[NH+][C@H]2COc3ccc(Br)cc3C2)CN1
     RDKit          3D

 55 58  0  0  1  0  0  0  0  0999 V2000
  124.2107  134.0204  161.6321 O   0  0  0  0  0  0  0  0  0  0  0  0
  125.3732  134.2740  161.3972 C   0  0  0  0  0  0  0  0  0  0  0  0
  126.2137  133.2151  160.7433 C   0  0  0  0  0  0  0  0  0  0  0  0
  127.6979  133.5411  160.9269 C   0  0  0  0  0  0  0  0  0  0  0  0
  127.9247  135.0057  160.5333 C   0  0  2  0  0  0  0  0  0  0  0  0
  127.5143  135.1851  159.5396 H   0  0  0  0  0  0  0  0  0  0  0  0
  129.3603  135.2977  160.5322 N   0  0  0  0  0  0  0  0  0  0  0  0
  130.2035  134.5981  159.7015 C   0  0  0  0  0  0  0  0  0  0  0  0
  129.7402  134.1149  158.5007 N   0  0  0  0  0  0  0  0  0  0  0  0
  130.6385  133.3695  157.6154 C   0  0  0  0  0  0  0  0  0  0  0  0
  129.8680  132.8783  156.3726 C   0  0  0  0  0  0  0  0  0  0  0  0
  130.4686  131.4795  156.0825 C   0  0  0  0  0  0  0  0  0  0  0  0
  130.6932  130.9021  157.5021 C   0  0  0  0  0  0  0  0  0  0  0  0
  131.1636  132.1137  158.3332 C   0  0  0  0  0  0  0  0  0  0  0  0
  131.4419  134.3931  160.0526 N   0  0  0  0  0  0  0  0  0  0  0  0
  132.0367  133.8995  159.4665 H   0  0  0  0  0  0  0  0  0  0  0  0
  131.9353  134.9078  161.3324 C   0  0  1  0  0  0  0  0  0  0  0  0
  131.8340  135.9928  161.3554 H   0  0  0  0  0  0  0  0  0  0  0  0
  131.1323  134.2881  162.4832 C   0  0  0  0  0  0  0  0  0  0  0  0
  131.5647  134.8853  163.7064 O   0  0  0  0  0  0  0  0  0  0  0  0
  132.9008  134.9462  163.9452 C   0  0  0  0  0  0  0  0  0  0  0  0
  133.3322  135.1805  165.2473 C   0  0  0  0  0  0  0  0  0  0  0  0
  134.6805  135.2540  165.5298 C   0  0  0  0  0  0  0  0  0  0  0  0
  135.6082  135.0945  164.5157 C   0  0  0  0  0  0  0  0  0  0  0  0
  137.4570  135.1966  164.9003 Br  0  0  0  0  0  0  0  0  0  0  0  0
  135.1832  134.8601  163.2219 C   0  0  0  0  0  0  0  0  0  0  0  0
  133.8307  134.7841  162.9335 C   0  0  0  0  0  0  0  0  0  0  0  0
  133.4061  134.5230  161.5105 C   0  0  0  0  0  0  0  0  0  0  0  0
  127.2192  135.9043  161.5497 C   0  0  0  0  0  0  0  0  0  0  0  0
  125.8368  135.4784  161.7333 N   0  0  0  0  0  0  0  0  0  0  0  0
  125.9808  133.1740  159.6793 H   0  0  0  0  0  0  0  0  0  0  0  0
  125.9963  132.2485  161.1978 H   0  0  0  0  0  0  0  0  0  0  0  0
  128.2977  132.8924  160.2886 H   0  0  0  0  0  0  0  0  0  0  0  0
  127.9798  133.3933  161.9694 H   0  0  0  0  0  0  0  0  0  0  0  0
  129.7160  135.9844  161.1176 H   0  0  0  0  0  0  0  0  0  0  0  0
  128.8196  134.2708  158.2378 H   0  0  0  0  0  0  0  0  0  0  0  0
  131.4727  134.0020  157.3119 H   0  0  0  0  0  0  0  0  0  0  0  0
  128.8031  132.7983  156.5909 H   0  0  0  0  0  0  0  0  0  0  0  0
  130.0363  133.5489  155.5299 H   0  0  0  0  0  0  0  0  0  0  0  0
  131.4142  131.5692  155.5478 H   0  0  0  0  0  0  0  0  0  0  0  0
  129.7662  130.8630  155.5215 H   0  0  0  0  0  0  0  0  0  0  0  0
  131.4633  130.1308  157.4827 H   0  0  0  0  0  0  0  0  0  0  0  0
  129.7631  130.5012  157.9046 H   0  0  0  0  0  0  0  0  0  0  0  0
  132.2525  132.1364  158.3771 H   0  0  0  0  0  0  0  0  0  0  0  0
  130.7498  132.0589  159.3401 H   0  0  0  0  0  0  0  0  0  0  0  0
  130.0698  134.4818  162.3355 H   0  0  0  0  0  0  0  0  0  0  0  0
  131.3087  133.2130  162.5169 H   0  0  0  0  0  0  0  0  0  0  0  0
  132.6087  135.3047  166.0396 H   0  0  0  0  0  0  0  0  0  0  0  0
  135.0116  135.4362  166.5415 H   0  0  0  0  0  0  0  0  0  0  0  0
  135.9090  134.7353  162.4320 H   0  0  0  0  0  0  0  0  0  0  0  0
  133.5343  133.4650  161.2821 H   0  0  0  0  0  0  0  0  0  0  0  0
  134.0208  135.1166  160.8339 H   0  0  0  0  0  0  0  0  0  0  0  0
  127.7413  135.8471  162.5049 H   0  0  0  0  0  0  0  0  0  0  0  0
  127.2376  136.9344  161.1938 H   0  0  0  0  0  0  0  0  0  0  0  0
  125.2145  136.1127  162.1222 H   0  0  0  0  0  0  0  0  0  0  0  0
  1  2  2  0
  2 30  1  0
  2  3  1  0
  3  4  1  0
  3 31  1  0
  3 32  1  0
  4  5  1  0
  4 33  1  0
  4 34  1  0
  5  6  1  6
  5  7  1  0
  5 29  1  0
  7 35  1  0
  8  7  1  0
  8  9  1  0
  8 15  2  0
  9 10  1  0
  9 36  1  0
 10 14  1  0
 10 11  1  0
 10 37  1  0
 11 12  1  0
 11 38  1  0
 11 39  1  0
 12 13  1  0
 12 40  1  0
 12 41  1  0
 13 14  1  0
 13 42  1  0
 13 43  1  0
 14 44  1  0
 14 45  1  0
 15 16  1  0
 15 17  1  0
 17 18  1  6
 17 28  1  0
 17 19  1  0
 19 20  1  0
 19 46  1  0
 19 47  1  0
 20 21  1  0
 21 27  2  0
 21 22  1  0
 22 23  2  0
 22 48  1  0
 23 24  1  0
 23 49  1  0
 24 25  1  0
 24 26  2  0
 26 27  1  0
 26 50  1  0
 27 28  1  0
 28 51  1  0
 28 52  1  0
 29 30  1  0
 29 53  1  0
 29 54  1  0
 30 55  1  0
M  CHG  1  15   1
M  END
>  <DOCK_score>  (1) 
-43.619846

>  <SMILES>  (1) 
O=C1CC[C@H](NC(NC2CCCC2)=[NH+][C@H]2COc3ccc(Br)cc3C2)CN1

$$$$
