Cc1cccc(N2CC[NH+](C(c3ccccc3)c3ccccc3)CC2)c1[C@@H](O)c1ccccc1
     RDKit          3D

 67 71  0  0  1  0  0  0  0  0999 V2000
  135.8247  140.8743  163.0199 C   0  0  0  0  0  0  0  0  0  0  0  0
  135.2654  140.2618  161.7616 C   0  0  0  0  0  0  0  0  0  0  0  0
  135.6862  140.7174  160.5254 C   0  0  0  0  0  0  0  0  0  0  0  0
  135.1758  140.1579  159.3686 C   0  0  0  0  0  0  0  0  0  0  0  0
  134.2430  139.1420  159.4441 C   0  0  0  0  0  0  0  0  0  0  0  0
  133.8221  138.6786  160.6839 C   0  0  0  0  0  0  0  0  0  0  0  0
  132.8833  137.6475  160.7639 N   0  0  0  0  0  0  0  0  0  0  0  0
  133.4152  136.4050  160.1863 C   0  0  0  0  0  0  0  0  0  0  0  0
  132.3816  135.2880  160.3471 C   0  0  0  0  0  0  0  0  0  0  0  0
  131.1371  135.6709  159.6673 N   0  0  0  0  0  0  0  0  0  0  0  0
  131.3241  135.8310  158.6888 H   0  0  0  0  0  0  0  0  0  0  0  0
  130.1512  134.5907  159.8064 C   0  0  0  0  0  0  0  0  0  0  0  0
  128.8743  134.9832  159.1092 C   0  0  0  0  0  0  0  0  0  0  0  0
  127.6613  134.5026  159.5663 C   0  0  0  0  0  0  0  0  0  0  0  0
  126.4895  134.8665  158.9296 C   0  0  0  0  0  0  0  0  0  0  0  0
  126.5310  135.7025  157.8302 C   0  0  0  0  0  0  0  0  0  0  0  0
  127.7448  136.1788  157.3691 C   0  0  0  0  0  0  0  0  0  0  0  0
  128.9161  135.8192  158.0089 C   0  0  0  0  0  0  0  0  0  0  0  0
  130.6959  133.3303  159.1852 C   0  0  0  0  0  0  0  0  0  0  0  0
  130.4554  133.0574  157.8515 C   0  0  0  0  0  0  0  0  0  0  0  0
  130.9592  131.9037  157.2804 C   0  0  0  0  0  0  0  0  0  0  0  0
  131.6944  131.0177  158.0456 C   0  0  0  0  0  0  0  0  0  0  0  0
  131.9303  131.2882  159.3806 C   0  0  0  0  0  0  0  0  0  0  0  0
  131.4311  132.4445  159.9504 C   0  0  0  0  0  0  0  0  0  0  0  0
  130.6052  136.8996  160.2713 C   0  0  0  0  0  0  0  0  0  0  0  0
  131.6240  138.0299  160.1099 C   0  0  0  0  0  0  0  0  0  0  0  0
  134.3335  139.2462  161.8443 C   0  0  0  0  0  0  0  0  0  0  0  0
  133.8761  138.7499  163.1917 C   0  0  1  0  0  0  0  0  0  0  0  0
  133.4206  139.5706  163.7458 H   0  0  0  0  0  0  0  0  0  0  0  0
  132.9178  137.7049  163.0143 O   0  0  0  0  0  0  0  0  0  0  0  0
  135.0596  138.2210  163.9603 C   0  0  0  0  0  0  0  0  0  0  0  0
  135.0759  138.2938  165.3407 C   0  0  0  0  0  0  0  0  0  0  0  0
  136.1598  137.8052  166.0459 C   0  0  0  0  0  0  0  0  0  0  0  0
  137.2309  137.2510  165.3703 C   0  0  0  0  0  0  0  0  0  0  0  0
  137.2170  137.1827  163.9898 C   0  0  0  0  0  0  0  0  0  0  0  0
  136.1314  137.6679  163.2848 C   0  0  0  0  0  0  0  0  0  0  0  0
  136.6547  140.2673  163.3816 H   0  0  0  0  0  0  0  0  0  0  0  0
  136.1783  141.8831  162.8067 H   0  0  0  0  0  0  0  0  0  0  0  0
  135.0459  140.9155  163.7813 H   0  0  0  0  0  0  0  0  0  0  0  0
  136.4154  141.5116  160.4635 H   0  0  0  0  0  0  0  0  0  0  0  0
  135.5066  140.5160  158.4049 H   0  0  0  0  0  0  0  0  0  0  0  0
  133.8449  138.7055  158.5400 H   0  0  0  0  0  0  0  0  0  0  0  0
  133.6250  136.5568  159.1275 H   0  0  0  0  0  0  0  0  0  0  0  0
  134.3338  136.1276  160.7034 H   0  0  0  0  0  0  0  0  0  0  0  0
  132.1822  135.1272  161.4065 H   0  0  0  0  0  0  0  0  0  0  0  0
  132.7683  134.3691  159.9066 H   0  0  0  0  0  0  0  0  0  0  0  0
  129.9494  134.4169  160.8634 H   0  0  0  0  0  0  0  0  0  0  0  0
  127.6289  133.8460  160.4231 H   0  0  0  0  0  0  0  0  0  0  0  0
  125.5417  134.4941  159.2890 H   0  0  0  0  0  0  0  0  0  0  0  0
  125.6163  135.9831  157.3293 H   0  0  0  0  0  0  0  0  0  0  0  0
  127.7776  136.8316  156.5093 H   0  0  0  0  0  0  0  0  0  0  0  0
  129.8642  136.1910  157.6491 H   0  0  0  0  0  0  0  0  0  0  0  0
  129.8773  133.7474  157.2549 H   0  0  0  0  0  0  0  0  0  0  0  0
  130.7746  131.6922  156.2376 H   0  0  0  0  0  0  0  0  0  0  0  0
  132.0842  130.1142  157.6006 H   0  0  0  0  0  0  0  0  0  0  0  0
  132.5045  130.5959  159.9786 H   0  0  0  0  0  0  0  0  0  0  0  0
  131.6151  132.6555  160.9934 H   0  0  0  0  0  0  0  0  0  0  0  0
  130.4149  136.7306  161.3311 H   0  0  0  0  0  0  0  0  0  0  0  0
  129.6749  137.1753  159.7746 H   0  0  0  0  0  0  0  0  0  0  0  0
  131.2358  138.9380  160.5712 H   0  0  0  0  0  0  0  0  0  0  0  0
  131.8043  138.2085  159.0499 H   0  0  0  0  0  0  0  0  0  0  0  0
  132.4976  137.4131  163.8348 H   0  0  0  0  0  0  0  0  0  0  0  0
  134.2405  138.7299  165.8683 H   0  0  0  0  0  0  0  0  0  0  0  0
  136.1709  137.8588  167.1246 H   0  0  0  0  0  0  0  0  0  0  0  0
  138.0790  136.8715  165.9212 H   0  0  0  0  0  0  0  0  0  0  0  0
  138.0540  136.7502  163.4620 H   0  0  0  0  0  0  0  0  0  0  0  0
  136.1205  137.6146  162.2061 H   0  0  0  0  0  0  0  0  0  0  0  0
  1  2  1  0
  1 37  1  0
  1 38  1  0
  1 39  1  0
  2 27  2  0
  2  3  1  0
  3  4  2  0
  3 40  1  0
  4  5  1  0
  4 41  1  0
  5  6  2  0
  5 42  1  0
  6  7  1  0
  6 27  1  0
  7 26  1  0
  7  8  1  0
  8  9  1  0
  8 43  1  0
  8 44  1  0
  9 10  1  0
  9 45  1  0
  9 46  1  0
 10 11  1  0
 10 12  1  0
 10 25  1  0
 12 13  1  0
 12 19  1  0
 12 47  1  0
 13 18  1  0
 13 14  2  0
 14 15  1  0
 14 48  1  0
 15 16  2  0
 15 49  1  0
 16 17  1  0
 16 50  1  0
 17 18  2  0
 17 51  1  0
 18 52  1  0
 19 24  1  0
 19 20  2  0
 20 21  1  0
 20 53  1  0
 21 22  2  0
 21 54  1  0
 22 23  1  0
 22 55  1  0
 23 24  2  0
 23 56  1  0
 24 57  1  0
 25 26  1  0
 25 58  1  0
 25 59  1  0
 26 60  1  0
 26 61  1  0
 27 28  1  0
 28 29  1  1
 28 30  1  0
 28 31  1  0
 30 62  1  0
 31 36  1  0
 31 32  2  0
 32 33  1  0
 32 63  1  0
 33 34  2  0
 33 64  1  0
 34 35  1  0
 34 65  1  0
 35 36  2  0
 35 66  1  0
 36 67  1  0
M  CHG  1  10   1
M  END
>  <DOCK_score>  (1) 
-61.317127

>  <SMILES>  (1) 
Cc1cccc(N2CC[NH+](C(c3ccccc3)c3ccccc3)CC2)c1[C@@H](O)c1ccccc1

$$$$
