Fc1ccc(C(Nc2[nH]cc(-c3ccc(C(F)(F)F)cc3)[nH+]2)c2ccc(F)cc2)cc1
     RDKit          3D

 48 51  0  0  1  0  0  0  0  0999 V2000
  130.1270  140.7540  161.7974 F   0  0  0  0  0  0  0  0  0  0  0  0
  129.8290  139.5234  161.3264 C   0  0  0  0  0  0  0  0  0  0  0  0
  129.0600  138.6583  162.0865 C   0  0  0  0  0  0  0  0  0  0  0  0
  128.7563  137.3993  161.6042 C   0  0  0  0  0  0  0  0  0  0  0  0
  129.2206  137.0033  160.3638 C   0  0  0  0  0  0  0  0  0  0  0  0
  128.8891  135.6300  159.8390 C   0  0  0  0  0  0  0  0  0  0  0  0
  129.9726  135.1648  158.9695 N   0  0  0  0  0  0  0  0  0  0  0  0
  129.8914  133.9208  158.3675 C   0  0  0  0  0  0  0  0  0  0  0  0
  129.2513  132.8336  158.8777 N   0  0  0  0  0  0  0  0  0  0  0  0
  128.7744  132.7911  159.7213 H   0  0  0  0  0  0  0  0  0  0  0  0
  129.4057  131.8073  157.9778 C   0  0  0  0  0  0  0  0  0  0  0  0
  130.1351  132.2964  156.9445 C   0  0  0  0  0  0  0  0  0  0  0  0
  130.5506  131.5435  155.7358 C   0  0  0  0  0  0  0  0  0  0  0  0
  130.1461  131.9708  154.4722 C   0  0  0  0  0  0  0  0  0  0  0  0
  130.5361  131.2667  153.3512 C   0  0  0  0  0  0  0  0  0  0  0  0
  131.3270  130.1386  153.4801 C   0  0  0  0  0  0  0  0  0  0  0  0
  131.7496  129.3739  152.2522 C   0  0  0  0  0  0  0  0  0  0  0  0
  131.2230  129.9937  151.1130 F   0  0  0  0  0  0  0  0  0  0  0  0
  133.1459  129.3581  152.1702 F   0  0  0  0  0  0  0  0  0  0  0  0
  131.2716  128.0622  152.3320 F   0  0  0  0  0  0  0  0  0  0  0  0
  131.7265  129.7072  154.7318 C   0  0  0  0  0  0  0  0  0  0  0  0
  131.3473  130.4067  155.8594 C   0  0  0  0  0  0  0  0  0  0  0  0
  130.4226  133.5945  157.2147 N   0  0  0  0  0  0  0  0  0  0  0  0
  130.9372  134.1870  156.6446 H   0  0  0  0  0  0  0  0  0  0  0  0
  127.6046  135.6889  159.0534 C   0  0  0  0  0  0  0  0  0  0  0  0
  126.3954  135.4792  159.6898 C   0  0  0  0  0  0  0  0  0  0  0  0
  125.2163  135.5387  158.9714 C   0  0  0  0  0  0  0  0  0  0  0  0
  125.2472  135.7969  157.6116 C   0  0  0  0  0  0  0  0  0  0  0  0
  124.0956  135.8490  156.9070 F   0  0  0  0  0  0  0  0  0  0  0  0
  126.4592  136.0013  156.9741 C   0  0  0  0  0  0  0  0  0  0  0  0
  127.6365  135.9473  157.6957 C   0  0  0  0  0  0  0  0  0  0  0  0
  129.9933  137.8639  159.6066 C   0  0  0  0  0  0  0  0  0  0  0  0
  130.2932  139.1256  160.0844 C   0  0  0  0  0  0  0  0  0  0  0  0
  128.6978  138.9673  163.0559 H   0  0  0  0  0  0  0  0  0  0  0  0
  128.1562  136.7245  162.1966 H   0  0  0  0  0  0  0  0  0  0  0  0
  128.7724  134.9402  160.6749 H   0  0  0  0  0  0  0  0  0  0  0  0
  130.7469  135.7285  158.8157 H   0  0  0  0  0  0  0  0  0  0  0  0
  129.0204  130.8031  158.0749 H   0  0  0  0  0  0  0  0  0  0  0  0
  129.5291  132.8512  154.3707 H   0  0  0  0  0  0  0  0  0  0  0  0
  130.2230  131.5965  152.3716 H   0  0  0  0  0  0  0  0  0  0  0  0
  132.3399  128.8234  154.8266 H   0  0  0  0  0  0  0  0  0  0  0  0
  131.6632  130.0709  156.8360 H   0  0  0  0  0  0  0  0  0  0  0  0
  126.3720  135.2726  160.7496 H   0  0  0  0  0  0  0  0  0  0  0  0
  124.2715  135.3787  159.4697 H   0  0  0  0  0  0  0  0  0  0  0  0
  126.4845  136.2026  155.9133 H   0  0  0  0  0  0  0  0  0  0  0  0
  128.5820  136.1068  157.1987 H   0  0  0  0  0  0  0  0  0  0  0  0
  130.3596  137.5517  158.6398 H   0  0  0  0  0  0  0  0  0  0  0  0
  130.8936  139.7993  159.4910 H   0  0  0  0  0  0  0  0  0  0  0  0
  1  2  1  0
  2 33  2  0
  2  3  1  0
  3  4  2  0
  3 34  1  0
  4  5  1  0
  4 35  1  0
  5  6  1  0
  5 32  2  0
  6  7  1  0
  6 25  1  0
  6 36  1  0
  7 37  1  0
  8  7  1  0
  8 23  2  0
  8  9  1  0
  9 10  1  0
  9 11  1  0
 11 12  2  0
 11 38  1  0
 12 13  1  0
 12 23  1  0
 13 22  1  0
 13 14  2  0
 14 15  1  0
 14 39  1  0
 15 16  2  0
 15 40  1  0
 16 17  1  0
 16 21  1  0
 17 18  1  0
 17 19  1  0
 17 20  1  0
 21 22  2  0
 21 41  1  0
 22 42  1  0
 23 24  1  0
 25 31  1  0
 25 26  2  0
 26 27  1  0
 26 43  1  0
 27 28  2  0
 27 44  1  0
 28 29  1  0
 28 30  1  0
 30 31  2  0
 30 45  1  0
 31 46  1  0
 32 33  1  0
 32 47  1  0
 33 48  1  0
M  CHG  1  23   1
M  END
>  <DOCK_score>  (1) 
-61.100063

>  <SMILES>  (1) 
Fc1ccc(C(Nc2[nH]cc(-c3ccc(C(F)(F)F)cc3)[nH+]2)c2ccc(F)cc2)cc1

$$$$
