N#Cc1ccc2c(c1)C[C@H](Nc1ccc(-c3n[nH]cc3C[NH2+][C@H]3C[C@@H](CO)C3)o1)CO2
     RDKit          3D

 57 61  0  0  1  0  0  0  0  0999 V2000
  127.1465  143.9084  166.5665 N   0  0  0  0  0  0  0  0  0  0  0  0
  127.5102  142.9481  166.0805 C   0  0  0  0  0  0  0  0  0  0  0  0
  127.9687  141.7376  165.4678 C   0  0  0  0  0  0  0  0  0  0  0  0
  129.3115  141.3637  165.5698 C   0  0  0  0  0  0  0  0  0  0  0  0
  129.7441  140.2006  164.9767 C   0  0  0  0  0  0  0  0  0  0  0  0
  128.8517  139.3921  164.2741 C   0  0  0  0  0  0  0  0  0  0  0  0
  127.5183  139.7584  164.1736 C   0  0  0  0  0  0  0  0  0  0  0  0
  127.0768  140.9255  164.7655 C   0  0  0  0  0  0  0  0  0  0  0  0
  126.5226  138.9028  163.4315 C   0  0  0  0  0  0  0  0  0  0  0  0
  127.2639  137.9313  162.5096 C   0  0  2  0  0  0  0  0  0  0  0  0
  127.6965  138.4770  161.6711 H   0  0  0  0  0  0  0  0  0  0  0  0
  126.3328  136.9164  162.0105 N   0  0  0  0  0  0  0  0  0  0  0  0
  126.7841  135.9219  161.1506 C   0  0  0  0  0  0  0  0  0  0  0  0
  126.0271  134.9291  160.6205 C   0  0  0  0  0  0  0  0  0  0  0  0
  126.8782  134.1503  159.8117 C   0  0  0  0  0  0  0  0  0  0  0  0
  128.1148  134.7089  159.8893 C   0  0  0  0  0  0  0  0  0  0  0  0
  129.3282  134.2246  159.1992 C   0  0  0  0  0  0  0  0  0  0  0  0
  129.4008  133.1806  158.3972 N   0  0  0  0  0  0  0  0  0  0  0  0
  130.7241  133.0649  157.9529 N   0  0  0  0  0  0  0  0  0  0  0  0
  131.0646  132.3848  157.3511 H   0  0  0  0  0  0  0  0  0  0  0  0
  131.4438  134.0644  158.5075 C   0  0  0  0  0  0  0  0  0  0  0  0
  130.6137  134.8008  159.2765 C   0  0  0  0  0  0  0  0  0  0  0  0
  130.9935  136.0192  160.0780 C   0  0  0  0  0  0  0  0  0  0  0  0
  132.4240  136.2990  159.8955 N   0  0  0  0  0  0  0  0  0  0  0  0
  132.9643  135.5072  160.2107 H   0  0  0  0  0  0  0  0  0  0  0  0
  132.6119  136.4670  158.9186 H   0  0  0  0  0  0  0  0  0  0  0  0
  132.7941  137.4866  160.6768 C   0  0  1  0  0  0  0  0  0  0  0  0
  132.3127  137.5173  161.6542 H   0  0  0  0  0  0  0  0  0  0  0  0
  134.3095  137.7438  160.7261 C   0  0  0  0  0  0  0  0  0  0  0  0
  133.9814  139.2386  160.5764 C   0  0  1  0  0  0  0  0  0  0  0  0
  133.8256  139.7488  161.5270 H   0  0  0  0  0  0  0  0  0  0  0  0
  134.9409  139.9870  159.6490 C   0  0  0  0  0  0  0  0  0  0  0  0
  135.2512  139.1657  158.5216 O   0  0  0  0  0  0  0  0  0  0  0  0
  132.6758  138.8027  159.8902 C   0  0  0  0  0  0  0  0  0  0  0  0
  128.0441  135.7824  160.7043 O   0  0  0  0  0  0  0  0  0  0  0  0
  128.3793  137.2567  163.3184 C   0  0  0  0  0  0  0  0  0  0  0  0
  129.3250  138.2559  163.7014 O   0  0  0  0  0  0  0  0  0  0  0  0
  130.0074  141.9859  166.1131 H   0  0  0  0  0  0  0  0  0  0  0  0
  130.7818  139.9120  165.0553 H   0  0  0  0  0  0  0  0  0  0  0  0
  126.0383  141.2110  164.6841 H   0  0  0  0  0  0  0  0  0  0  0  0
  125.8692  139.5406  162.8361 H   0  0  0  0  0  0  0  0  0  0  0  0
  125.9243  138.3389  164.1470 H   0  0  0  0  0  0  0  0  0  0  0  0
  125.4012  136.9382  162.2801 H   0  0  0  0  0  0  0  0  0  0  0  0
  124.9717  134.7688  160.7837 H   0  0  0  0  0  0  0  0  0  0  0  0
  126.6012  133.2771  159.2397 H   0  0  0  0  0  0  0  0  0  0  0  0
  132.4982  134.2449  158.3587 H   0  0  0  0  0  0  0  0  0  0  0  0
  130.4098  136.8745  159.7375 H   0  0  0  0  0  0  0  0  0  0  0  0
  130.7904  135.8378  161.1334 H   0  0  0  0  0  0  0  0  0  0  0  0
  134.7644  137.4904  161.6836 H   0  0  0  0  0  0  0  0  0  0  0  0
  134.8508  137.3283  159.8761 H   0  0  0  0  0  0  0  0  0  0  0  0
  134.4714  140.9096  159.3083 H   0  0  0  0  0  0  0  0  0  0  0  0
  135.8576  140.2238  160.1892 H   0  0  0  0  0  0  0  0  0  0  0  0
  134.4933  138.9785  157.9508 H   0  0  0  0  0  0  0  0  0  0  0  0
  132.7705  138.6768  158.8116 H   0  0  0  0  0  0  0  0  0  0  0  0
  131.8120  139.4042  160.1730 H   0  0  0  0  0  0  0  0  0  0  0  0
  127.9569  136.7905  164.2086 H   0  0  0  0  0  0  0  0  0  0  0  0
  128.8709  136.5007  162.7061 H   0  0  0  0  0  0  0  0  0  0  0  0
  1  2  3  0
  2  3  1  0
  3  8  2  0
  3  4  1  0
  4  5  2  0
  4 38  1  0
  5  6  1  0
  5 39  1  0
  6 37  1  0
  6  7  2  0
  7  8  1  0
  7  9  1  0
  8 40  1  0
  9 10  1  0
  9 41  1  0
  9 42  1  0
 10 11  1  6
 10 12  1  0
 10 36  1  0
 12 13  1  0
 12 43  1  0
 13 35  1  0
 13 14  2  0
 14 15  1  0
 14 44  1  0
 15 16  2  0
 15 45  1  0
 16 17  1  0
 16 35  1  0
 17 22  1  0
 17 18  2  0
 18 19  1  0
 19 20  1  0
 19 21  1  0
 21 22  2  0
 21 46  1  0
 22 23  1  0
 23 24  1  0
 23 47  1  0
 23 48  1  0
 24 25  1  0
 24 26  1  0
 24 27  1  0
 27 28  1  1
 27 34  1  0
 27 29  1  0
 29 30  1  0
 29 49  1  0
 29 50  1  0
 30 31  1  1
 30 32  1  0
 30 34  1  0
 32 33  1  0
 32 51  1  0
 32 52  1  0
 33 53  1  0
 34 54  1  0
 34 55  1  0
 36 37  1  0
 36 56  1  0
 36 57  1  0
M  CHG  1  24   1
M  END
>  <DOCK_score>  (1) 
-44.068405

>  <SMILES>  (1) 
N#Cc1ccc2c(c1)C[C@H](Nc1ccc(-c3n[nH]cc3C[NH2+][C@H]3C[C@@H](CO)C3)o1)CO2

$$$$
