Brc1ccc(-c2c[nH]c(N[C@@H](c3ccccc3)c3cccc4ccccc34)[nH+]2)cc1
     RDKit          3D

 51 55  0  0  1  0  0  0  0  0999 V2000
  130.7174  129.3862  150.3640 Br  0  0  0  0  0  0  0  0  0  0  0  0
  130.6637  130.1595  152.0888 C   0  0  0  0  0  0  0  0  0  0  0  0
  130.0137  131.3656  152.2838 C   0  0  0  0  0  0  0  0  0  0  0  0
  129.9714  131.9342  153.5404 C   0  0  0  0  0  0  0  0  0  0  0  0
  130.5851  131.2918  154.6143 C   0  0  0  0  0  0  0  0  0  0  0  0
  130.5429  131.8984  155.9674 C   0  0  0  0  0  0  0  0  0  0  0  0
  129.9965  131.3397  157.0755 C   0  0  0  0  0  0  0  0  0  0  0  0
  130.1751  132.2346  158.1026 N   0  0  0  0  0  0  0  0  0  0  0  0
  129.8902  132.1179  159.0224 H   0  0  0  0  0  0  0  0  0  0  0  0
  130.8262  133.3147  157.5914 C   0  0  0  0  0  0  0  0  0  0  0  0
  131.1966  134.4436  158.3018 N   0  0  0  0  0  0  0  0  0  0  0  0
  130.8891  134.5436  159.7307 C   0  0  1  0  0  0  0  0  0  0  0  0
  131.0542  133.5768  160.2063 H   0  0  0  0  0  0  0  0  0  0  0  0
  131.7848  135.5755  160.3663 C   0  0  0  0  0  0  0  0  0  0  0  0
  133.0047  135.1993  160.8966 C   0  0  0  0  0  0  0  0  0  0  0  0
  133.8282  136.1465  161.4757 C   0  0  0  0  0  0  0  0  0  0  0  0
  133.4278  137.4684  161.5329 C   0  0  0  0  0  0  0  0  0  0  0  0
  132.2058  137.8437  161.0068 C   0  0  0  0  0  0  0  0  0  0  0  0
  131.3841  136.8972  160.4238 C   0  0  0  0  0  0  0  0  0  0  0  0
  129.4491  134.9510  159.9074 C   0  0  0  0  0  0  0  0  0  0  0  0
  128.6596  135.1633  158.8189 C   0  0  0  0  0  0  0  0  0  0  0  0
  127.3258  135.5399  158.9627 C   0  0  0  0  0  0  0  0  0  0  0  0
  126.7736  135.7066  160.1956 C   0  0  0  0  0  0  0  0  0  0  0  0
  127.5574  135.4966  161.3427 C   0  0  0  0  0  0  0  0  0  0  0  0
  127.0223  135.6584  162.6322 C   0  0  0  0  0  0  0  0  0  0  0  0
  127.8072  135.4299  163.7203 C   0  0  0  0  0  0  0  0  0  0  0  0
  129.1414  135.0535  163.5766 C   0  0  0  0  0  0  0  0  0  0  0  0
  129.6952  134.8922  162.3439 C   0  0  0  0  0  0  0  0  0  0  0  0
  128.9127  135.1081  161.1965 C   0  0  0  0  0  0  0  0  0  0  0  0
  131.0396  133.1124  156.3141 N   0  0  0  0  0  0  0  0  0  0  0  0
  131.4838  133.7307  155.7131 H   0  0  0  0  0  0  0  0  0  0  0  0
  131.2437  130.0803  154.4115 C   0  0  0  0  0  0  0  0  0  0  0  0
  131.2747  129.5171  153.1520 C   0  0  0  0  0  0  0  0  0  0  0  0
  129.5386  131.8627  151.4509 H   0  0  0  0  0  0  0  0  0  0  0  0
  129.4633  132.8751  153.6915 H   0  0  0  0  0  0  0  0  0  0  0  0
  129.5130  130.3759  157.1386 H   0  0  0  0  0  0  0  0  0  0  0  0
  131.6563  135.1702  157.8526 H   0  0  0  0  0  0  0  0  0  0  0  0
  133.3157  134.1658  160.8556 H   0  0  0  0  0  0  0  0  0  0  0  0
  134.7831  135.8533  161.8864 H   0  0  0  0  0  0  0  0  0  0  0  0
  134.0698  138.2078  161.9883 H   0  0  0  0  0  0  0  0  0  0  0  0
  131.8930  138.8764  161.0515 H   0  0  0  0  0  0  0  0  0  0  0  0
  130.4294  137.1904  160.0130 H   0  0  0  0  0  0  0  0  0  0  0  0
  129.0732  135.0381  157.8293 H   0  0  0  0  0  0  0  0  0  0  0  0
  126.7213  135.7024  158.0827 H   0  0  0  0  0  0  0  0  0  0  0  0
  125.7384  135.9992  160.2918 H   0  0  0  0  0  0  0  0  0  0  0  0
  125.9903  135.9503  162.7590 H   0  0  0  0  0  0  0  0  0  0  0  0
  127.3923  135.5507  164.7101 H   0  0  0  0  0  0  0  0  0  0  0  0
  129.7448  134.8868  164.4566 H   0  0  0  0  0  0  0  0  0  0  0  0
  130.7305  134.6001  162.2478 H   0  0  0  0  0  0  0  0  0  0  0  0
  131.7251  129.5809  155.2393 H   0  0  0  0  0  0  0  0  0  0  0  0
  131.7806  128.5760  152.9947 H   0  0  0  0  0  0  0  0  0  0  0  0
  1  2  1  0
  2 33  2  0
  2  3  1  0
  3  4  2  0
  3 34  1  0
  4  5  1  0
  4 35  1  0
  5  6  1  0
  5 32  2  0
  6 30  1  0
  6  7  2  0
  7  8  1  0
  7 36  1  0
  8  9  1  0
  8 10  1  0
 10 11  1  0
 10 30  2  0
 11 12  1  0
 11 37  1  0
 12 13  1  1
 12 14  1  0
 12 20  1  0
 14 19  1  0
 14 15  2  0
 15 16  1  0
 15 38  1  0
 16 17  2  0
 16 39  1  0
 17 18  1  0
 17 40  1  0
 18 19  2  0
 18 41  1  0
 19 42  1  0
 20 29  1  0
 20 21  2  0
 21 22  1  0
 21 43  1  0
 22 23  2  0
 22 44  1  0
 23 24  1  0
 23 45  1  0
 24 29  2  0
 24 25  1  0
 25 26  2  0
 25 46  1  0
 26 27  1  0
 26 47  1  0
 27 28  2  0
 27 48  1  0
 28 29  1  0
 28 49  1  0
 30 31  1  0
 32 33  1  0
 32 50  1  0
 33 51  1  0
M  CHG  1  30   1
M  END
>  <DOCK_score>  (1) 
-60.511448

>  <SMILES>  (1) 
Brc1ccc(-c2c[nH]c(N[C@@H](c3ccccc3)c3cccc4ccccc34)[nH+]2)cc1

$$$$
