CC(=CC[C@H](Nc1[nH]cc(-c2ccc(N)cc2)[nH+]1)c1ccc(C)cc1)c1ccc(C)cc1
     RDKit          3D

 63 66  0  0  1  0  0  0  0  0999 V2000
  131.9090  137.5076  163.0822 C   0  0  0  0  0  0  0  0  0  0  0  0
  132.3172  137.6784  161.6417 C   0  0  0  0  0  0  0  0  0  0  0  0
  131.5492  137.1982  160.6737 C   0  0  0  0  0  0  0  0  0  0  0  0
  130.2169  136.5776  161.0067 C   0  0  0  0  0  0  0  0  0  0  0  0
  130.2009  135.1215  160.5370 C   0  0  2  0  0  0  0  0  0  0  0  0
  130.9947  134.5689  161.0394 H   0  0  0  0  0  0  0  0  0  0  0  0
  130.4135  135.0734  159.0883 N   0  0  0  0  0  0  0  0  0  0  0  0
  130.4391  133.8543  158.4326 C   0  0  0  0  0  0  0  0  0  0  0  0
  130.2810  132.6361  159.0178 N   0  0  0  0  0  0  0  0  0  0  0  0
  130.1306  132.4669  159.9610 H   0  0  0  0  0  0  0  0  0  0  0  0
  130.3734  131.6895  158.0251 C   0  0  0  0  0  0  0  0  0  0  0  0
  130.5850  132.3568  156.8640 C   0  0  0  0  0  0  0  0  0  0  0  0
  130.7491  131.7445  155.5226 C   0  0  0  0  0  0  0  0  0  0  0  0
  130.3428  132.4387  154.3840 C   0  0  0  0  0  0  0  0  0  0  0  0
  130.5017  131.8700  153.1379 C   0  0  0  0  0  0  0  0  0  0  0  0
  131.0555  130.6012  153.0173 C   0  0  0  0  0  0  0  0  0  0  0  0
  131.2098  130.0248  151.7542 N   0  0  0  0  0  0  0  0  0  0  0  0
  131.4563  129.9048  154.1517 C   0  0  0  0  0  0  0  0  0  0  0  0
  131.3046  130.4719  155.3995 C   0  0  0  0  0  0  0  0  0  0  0  0
  130.6206  133.6833  157.1457 N   0  0  0  0  0  0  0  0  0  0  0  0
  130.7580  134.3922  156.4981 H   0  0  0  0  0  0  0  0  0  0  0  0
  128.8685  134.5010  160.8700 C   0  0  0  0  0  0  0  0  0  0  0  0
  127.8299  134.5640  159.9599 C   0  0  0  0  0  0  0  0  0  0  0  0
  126.6094  133.9902  160.2632 C   0  0  0  0  0  0  0  0  0  0  0  0
  126.4241  133.3632  161.4812 C   0  0  0  0  0  0  0  0  0  0  0  0
  125.0916  132.7431  161.8145 C   0  0  0  0  0  0  0  0  0  0  0  0
  127.4611  133.3049  162.3934 C   0  0  0  0  0  0  0  0  0  0  0  0
  128.6833  133.8738  162.0878 C   0  0  0  0  0  0  0  0  0  0  0  0
  133.5741  138.3811  161.3080 C   0  0  0  0  0  0  0  0  0  0  0  0
  133.5455  139.5312  160.5186 C   0  0  0  0  0  0  0  0  0  0  0  0
  134.7216  140.1857  160.2154 C   0  0  0  0  0  0  0  0  0  0  0  0
  135.9288  139.6972  160.6825 C   0  0  0  0  0  0  0  0  0  0  0  0
  137.2104  140.4133  160.3420 C   0  0  0  0  0  0  0  0  0  0  0  0
  135.9645  138.5542  161.4613 C   0  0  0  0  0  0  0  0  0  0  0  0
  134.7948  137.8937  161.7763 C   0  0  0  0  0  0  0  0  0  0  0  0
  131.7379  136.4511  163.2885 H   0  0  0  0  0  0  0  0  0  0  0  0
  132.7012  137.8809  163.7310 H   0  0  0  0  0  0  0  0  0  0  0  0
  130.9925  138.0674  163.2690 H   0  0  0  0  0  0  0  0  0  0  0  0
  131.8783  137.2519  159.6465 H   0  0  0  0  0  0  0  0  0  0  0  0
  129.4229  137.1303  160.5043 H   0  0  0  0  0  0  0  0  0  0  0  0
  130.0586  136.6135  162.0845 H   0  0  0  0  0  0  0  0  0  0  0  0
  130.5364  135.8956  158.5886 H   0  0  0  0  0  0  0  0  0  0  0  0
  130.2967  130.6192  158.1475 H   0  0  0  0  0  0  0  0  0  0  0  0
  129.9083  133.4229  154.4775 H   0  0  0  0  0  0  0  0  0  0  0  0
  130.1909  132.4091  152.2552 H   0  0  0  0  0  0  0  0  0  0  0  0
  131.5962  129.1386  151.6696 H   0  0  0  0  0  0  0  0  0  0  0  0
  130.9301  130.5094  150.9623 H   0  0  0  0  0  0  0  0  0  0  0  0
  131.8865  128.9189  154.0558 H   0  0  0  0  0  0  0  0  0  0  0  0
  131.6163  129.9307  156.2805 H   0  0  0  0  0  0  0  0  0  0  0  0
  127.9732  135.0580  159.0103 H   0  0  0  0  0  0  0  0  0  0  0  0
  125.7993  134.0355  159.5504 H   0  0  0  0  0  0  0  0  0  0  0  0
  124.4592  133.4827  162.3054 H   0  0  0  0  0  0  0  0  0  0  0  0
  124.6093  132.4039  160.8977 H   0  0  0  0  0  0  0  0  0  0  0  0
  125.2426  131.8941  162.4811 H   0  0  0  0  0  0  0  0  0  0  0  0
  127.3163  132.8150  163.3451 H   0  0  0  0  0  0  0  0  0  0  0  0
  129.4934  133.8284  162.8007 H   0  0  0  0  0  0  0  0  0  0  0  0
  132.6044  139.9108  160.1490 H   0  0  0  0  0  0  0  0  0  0  0  0
  134.7005  141.0787  159.6082 H   0  0  0  0  0  0  0  0  0  0  0  0
  137.6150  140.0119  159.4129 H   0  0  0  0  0  0  0  0  0  0  0  0
  137.0104  141.4780  160.2211 H   0  0  0  0  0  0  0  0  0  0  0  0
  137.9323  140.2681  161.1456 H   0  0  0  0  0  0  0  0  0  0  0  0
  136.9100  138.1782  161.8232 H   0  0  0  0  0  0  0  0  0  0  0  0
  134.8241  137.0012  162.3839 H   0  0  0  0  0  0  0  0  0  0  0  0
  1  2  1  0
  1 36  1  0
  1 37  1  0
  1 38  1  0
  2  3  2  0
  2 29  1  0
  3  4  1  0
  3 39  1  0
  4  5  1  0
  4 40  1  0
  4 41  1  0
  5  6  1  1
  5  7  1  0
  5 22  1  0
  7 42  1  0
  8  7  1  0
  8 20  2  0
  8  9  1  0
  9 10  1  0
  9 11  1  0
 11 12  2  0
 11 43  1  0
 12 13  1  0
 12 20  1  0
 13 19  1  0
 13 14  2  0
 14 15  1  0
 14 44  1  0
 15 16  2  0
 15 45  1  0
 16 17  1  0
 16 18  1  0
 17 46  1  0
 17 47  1  0
 18 19  2  0
 18 48  1  0
 19 49  1  0
 20 21  1  0
 22 28  1  0
 22 23  2  0
 23 24  1  0
 23 50  1  0
 24 25  2  0
 24 51  1  0
 25 26  1  0
 25 27  1  0
 26 52  1  0
 26 53  1  0
 26 54  1  0
 27 28  2  0
 27 55  1  0
 28 56  1  0
 29 35  1  0
 29 30  2  0
 30 31  1  0
 30 57  1  0
 31 32  2  0
 31 58  1  0
 32 33  1  0
 32 34  1  0
 33 59  1  0
 33 60  1  0
 33 61  1  0
 34 35  2  0
 34 62  1  0
 35 63  1  0
M  CHG  1  20   1
M  END
>  <DOCK_score>  (1) 
-61.156059

>  <SMILES>  (1) 
CC(=CC[C@H](Nc1[nH]cc(-c2ccc(N)cc2)[nH+]1)c1ccc(C)cc1)c1ccc(C)cc1

$$$$
