C[C@](CNc1ccc(-c2ccccc2)s1)([NH2+]Cc1cccc2c1NC(=O)CO2)c1ccccc1
     RDKit          3D

 62 66  0  0  1  0  0  0  0  0999 V2000
  128.4380  136.7646  159.1364 C   0  0  0  0  0  0  0  0  0  0  0  0
  129.0383  135.5716  159.8829 C   0  0  2  0  0  0  0  0  0  0  0  0
  129.9648  136.0770  160.9907 C   0  0  0  0  0  0  0  0  0  0  0  0
  131.2590  136.4482  160.4134 N   0  0  0  0  0  0  0  0  0  0  0  0
  132.4198  136.3352  161.1754 C   0  0  0  0  0  0  0  0  0  0  0  0
  133.6574  136.6455  160.7515 C   0  0  0  0  0  0  0  0  0  0  0  0
  134.6548  136.4573  161.6857 C   0  0  0  0  0  0  0  0  0  0  0  0
  134.2334  135.9816  162.8740 C   0  0  0  0  0  0  0  0  0  0  0  0
  135.1031  135.6923  164.0319 C   0  0  0  0  0  0  0  0  0  0  0  0
  134.9012  136.3561  165.2440 C   0  0  0  0  0  0  0  0  0  0  0  0
  135.7173  136.0809  166.3214 C   0  0  0  0  0  0  0  0  0  0  0  0
  136.7338  135.1495  166.2035 C   0  0  0  0  0  0  0  0  0  0  0  0
  136.9396  134.4883  165.0055 C   0  0  0  0  0  0  0  0  0  0  0  0
  136.1314  134.7539  163.9198 C   0  0  0  0  0  0  0  0  0  0  0  0
  132.4886  135.7650  162.8375 S   0  0  0  0  0  0  0  0  0  0  0  0
  129.8049  134.7418  158.9441 N   0  0  0  0  0  0  0  0  0  0  0  0
  130.3137  135.3367  158.3075 H   0  0  0  0  0  0  0  0  0  0  0  0
  130.4547  134.1655  159.4577 H   0  0  0  0  0  0  0  0  0  0  0  0
  128.8851  133.8848  158.1842 C   0  0  0  0  0  0  0  0  0  0  0  0
  129.6717  133.0334  157.2211 C   0  0  0  0  0  0  0  0  0  0  0  0
  129.9360  133.4947  155.9440 C   0  0  0  0  0  0  0  0  0  0  0  0
  130.6576  132.7157  155.0590 C   0  0  0  0  0  0  0  0  0  0  0  0
  131.1206  131.4699  155.4438 C   0  0  0  0  0  0  0  0  0  0  0  0
  130.8600  131.0017  156.7193 C   0  0  0  0  0  0  0  0  0  0  0  0
  130.1366  131.7897  157.6137 C   0  0  0  0  0  0  0  0  0  0  0  0
  129.8721  131.2995  158.9006 N   0  0  0  0  0  0  0  0  0  0  0  0
  130.5835  130.2457  159.3569 C   0  0  0  0  0  0  0  0  0  0  0  0
  130.3557  129.7876  160.4567 O   0  0  0  0  0  0  0  0  0  0  0  0
  131.6620  129.6416  158.4940 C   0  0  0  0  0  0  0  0  0  0  0  0
  131.3086  129.7806  157.1153 O   0  0  0  0  0  0  0  0  0  0  0  0
  127.9306  134.7501  160.4904 C   0  0  0  0  0  0  0  0  0  0  0  0
  126.6132  135.1325  160.3201 C   0  0  0  0  0  0  0  0  0  0  0  0
  125.5969  134.3768  160.8740 C   0  0  0  0  0  0  0  0  0  0  0  0
  125.8984  133.2431  161.6051 C   0  0  0  0  0  0  0  0  0  0  0  0
  127.2160  132.8634  161.7799 C   0  0  0  0  0  0  0  0  0  0  0  0
  128.2322  133.6170  161.2227 C   0  0  0  0  0  0  0  0  0  0  0  0
  129.2393  137.3588  158.6971 H   0  0  0  0  0  0  0  0  0  0  0  0
  127.7779  136.4045  158.3472 H   0  0  0  0  0  0  0  0  0  0  0  0
  127.8692  137.3803  159.8330 H   0  0  0  0  0  0  0  0  0  0  0  0
  130.1093  135.2898  161.7308 H   0  0  0  0  0  0  0  0  0  0  0  0
  129.5173  136.9480  161.4696 H   0  0  0  0  0  0  0  0  0  0  0  0
  131.3078  136.7727  159.5006 H   0  0  0  0  0  0  0  0  0  0  0  0
  133.8550  137.0175  159.7571 H   0  0  0  0  0  0  0  0  0  0  0  0
  135.6931  136.6716  161.4798 H   0  0  0  0  0  0  0  0  0  0  0  0
  134.1080  137.0830  165.3375 H   0  0  0  0  0  0  0  0  0  0  0  0
  135.5597  136.5903  167.2606 H   0  0  0  0  0  0  0  0  0  0  0  0
  137.3699  134.9380  167.0503 H   0  0  0  0  0  0  0  0  0  0  0  0
  137.7351  133.7629  164.9202 H   0  0  0  0  0  0  0  0  0  0  0  0
  136.2934  134.2376  162.9851 H   0  0  0  0  0  0  0  0  0  0  0  0
  128.3354  133.2421  158.8720 H   0  0  0  0  0  0  0  0  0  0  0  0
  128.1833  134.5073  157.6293 H   0  0  0  0  0  0  0  0  0  0  0  0
  129.5779  134.4664  155.6377 H   0  0  0  0  0  0  0  0  0  0  0  0
  130.8613  133.0811  154.0633 H   0  0  0  0  0  0  0  0  0  0  0  0
  131.6840  130.8640  154.7496 H   0  0  0  0  0  0  0  0  0  0  0  0
  129.1927  131.7128  159.4561 H   0  0  0  0  0  0  0  0  0  0  0  0
  131.7704  128.5843  158.7358 H   0  0  0  0  0  0  0  0  0  0  0  0
  132.6052  130.1551  158.6804 H   0  0  0  0  0  0  0  0  0  0  0  0
  126.3779  136.0203  159.7517 H   0  0  0  0  0  0  0  0  0  0  0  0
  124.5675  134.6738  160.7378 H   0  0  0  0  0  0  0  0  0  0  0  0
  125.1044  132.6541  162.0402 H   0  0  0  0  0  0  0  0  0  0  0  0
  127.4516  131.9779  162.3514 H   0  0  0  0  0  0  0  0  0  0  0  0
  129.2616  133.3204  161.3593 H   0  0  0  0  0  0  0  0  0  0  0  0
  1 37  1  0
  1 38  1  0
  1 39  1  0
  2  1  1  6
  2  3  1  0
  2 16  1  0
  2 31  1  0
  3  4  1  0
  3 40  1  0
  3 41  1  0
  4  5  1  0
  4 42  1  0
  5 15  1  0
  5  6  2  0
  6  7  1  0
  6 43  1  0
  7  8  2  0
  7 44  1  0
  8  9  1  0
  8 15  1  0
  9 14  1  0
  9 10  2  0
 10 11  1  0
 10 45  1  0
 11 12  2  0
 11 46  1  0
 12 13  1  0
 12 47  1  0
 13 14  2  0
 13 48  1  0
 14 49  1  0
 16 17  1  0
 16 18  1  0
 16 19  1  0
 19 20  1  0
 19 50  1  0
 19 51  1  0
 20 25  1  0
 20 21  2  0
 21 22  1  0
 21 52  1  0
 22 23  2  0
 22 53  1  0
 23 24  1  0
 23 54  1  0
 24 30  1  0
 24 25  2  0
 25 26  1  0
 26 27  1  0
 26 55  1  0
 27 28  2  0
 27 29  1  0
 29 30  1  0
 29 56  1  0
 29 57  1  0
 31 36  1  0
 31 32  2  0
 32 33  1  0
 32 58  1  0
 33 34  2  0
 33 59  1  0
 34 35  1  0
 34 60  1  0
 35 36  2  0
 35 61  1  0
 36 62  1  0
M  CHG  1  16   1
M  END
>  <DOCK_score>  (1) 
-56.150307

>  <SMILES>  (1) 
C[C@](CNc1ccc(-c2ccccc2)s1)([NH2+]Cc1cccc2c1NC(=O)CO2)c1ccccc1

$$$$
