CCC=C[C@H](O)c1ccc2cccnc2c1Nc1[nH]cc(-c2ccc(N)cc2)[nH+]1
     RDKit          3D

 53 56  0  0  1  0  0  0  0  0999 V2000
  131.7396  136.4853  165.2793 C   0  0  0  0  0  0  0  0  0  0  0  0
  132.8948  136.7343  164.3074 C   0  0  0  0  0  0  0  0  0  0  0  0
  132.4431  136.4306  162.9020 C   0  0  0  0  0  0  0  0  0  0  0  0
  131.9102  137.3749  162.1668 C   0  0  0  0  0  0  0  0  0  0  0  0
  131.4586  137.0711  160.7617 C   0  0  2  0  0  0  0  0  0  0  0  0
  132.0797  136.2790  160.3436 H   0  0  0  0  0  0  0  0  0  0  0  0
  131.5803  138.2464  159.9576 O   0  0  0  0  0  0  0  0  0  0  0  0
  130.0198  136.6235  160.7820 C   0  0  0  0  0  0  0  0  0  0  0  0
  129.1633  137.1074  161.7667 C   0  0  0  0  0  0  0  0  0  0  0  0
  127.8580  136.7219  161.8114 C   0  0  0  0  0  0  0  0  0  0  0  0
  127.3598  135.8233  160.8539 C   0  0  0  0  0  0  0  0  0  0  0  0
  126.0152  135.4055  160.8727 C   0  0  0  0  0  0  0  0  0  0  0  0
  125.5987  134.5302  159.9105 C   0  0  0  0  0  0  0  0  0  0  0  0
  126.4976  134.0768  158.9474 C   0  0  0  0  0  0  0  0  0  0  0  0
  127.7488  134.4682  158.9339 N   0  0  0  0  0  0  0  0  0  0  0  0
  128.2179  135.3267  159.8429 C   0  0  0  0  0  0  0  0  0  0  0  0
  129.5685  135.7404  159.8254 C   0  0  0  0  0  0  0  0  0  0  0  0
  130.4372  135.2633  158.8436 N   0  0  0  0  0  0  0  0  0  0  0  0
  130.2455  134.0027  158.3025 C   0  0  0  0  0  0  0  0  0  0  0  0
  129.6888  132.9401  158.9457 N   0  0  0  0  0  0  0  0  0  0  0  0
  129.3580  132.9292  159.8575 H   0  0  0  0  0  0  0  0  0  0  0  0
  129.6824  131.8856  158.0648 C   0  0  0  0  0  0  0  0  0  0  0  0
  130.2349  132.3341  156.9102 C   0  0  0  0  0  0  0  0  0  0  0  0
  130.4359  131.5408  155.6727 C   0  0  0  0  0  0  0  0  0  0  0  0
  129.8256  131.9360  154.4833 C   0  0  0  0  0  0  0  0  0  0  0  0
  130.0178  131.1997  153.3333 C   0  0  0  0  0  0  0  0  0  0  0  0
  130.8105  130.0589  153.3616 C   0  0  0  0  0  0  0  0  0  0  0  0
  130.9997  129.3120  152.1964 N   0  0  0  0  0  0  0  0  0  0  0  0
  131.4159  129.6599  154.5477 C   0  0  0  0  0  0  0  0  0  0  0  0
  131.2309  130.3960  155.6989 C   0  0  0  0  0  0  0  0  0  0  0  0
  130.5652  133.6377  157.0847 N   0  0  0  0  0  0  0  0  0  0  0  0
  130.9750  134.2083  156.4158 H   0  0  0  0  0  0  0  0  0  0  0  0
  132.0663  136.7050  166.2958 H   0  0  0  0  0  0  0  0  0  0  0  0
  130.9008  137.1311  165.0197 H   0  0  0  0  0  0  0  0  0  0  0  0
  131.4289  135.4426  165.2148 H   0  0  0  0  0  0  0  0  0  0  0  0
  133.7336  136.0886  164.5670 H   0  0  0  0  0  0  0  0  0  0  0  0
  133.2054  137.7771  164.3719 H   0  0  0  0  0  0  0  0  0  0  0  0
  132.5588  135.4346  162.5010 H   0  0  0  0  0  0  0  0  0  0  0  0
  131.7945  138.3709  162.5679 H   0  0  0  0  0  0  0  0  0  0  0  0
  131.3062  138.1240  159.0383 H   0  0  0  0  0  0  0  0  0  0  0  0
  129.5397  137.7985  162.5064 H   0  0  0  0  0  0  0  0  0  0  0  0
  127.2068  137.1065  162.5823 H   0  0  0  0  0  0  0  0  0  0  0  0
  125.3321  135.7678  161.6266 H   0  0  0  0  0  0  0  0  0  0  0  0
  124.5740  134.1897  159.8965 H   0  0  0  0  0  0  0  0  0  0  0  0
  126.1549  133.3844  158.1927 H   0  0  0  0  0  0  0  0  0  0  0  0
  131.1729  135.8159  158.5369 H   0  0  0  0  0  0  0  0  0  0  0  0
  129.3088  130.8903  158.2551 H   0  0  0  0  0  0  0  0  0  0  0  0
  129.2058  132.8201  154.4618 H   0  0  0  0  0  0  0  0  0  0  0  0
  129.5487  131.5080  152.4106 H   0  0  0  0  0  0  0  0  0  0  0  0
  131.5535  128.5153  152.2156 H   0  0  0  0  0  0  0  0  0  0  0  0
  130.5778  129.5893  151.3686 H   0  0  0  0  0  0  0  0  0  0  0  0
  132.0314  128.7727  154.5676 H   0  0  0  0  0  0  0  0  0  0  0  0
  131.7017  130.0860  156.6200 H   0  0  0  0  0  0  0  0  0  0  0  0
  1  2  1  0
  1 33  1  0
  1 34  1  0
  1 35  1  0
  2  3  1  0
  2 36  1  0
  2 37  1  0
  3  4  2  0
  3 38  1  0
  4  5  1  0
  4 39  1  0
  5  6  1  6
  5  7  1  0
  5  8  1  0
  7 40  1  0
  8 17  2  0
  8  9  1  0
  9 10  2  0
  9 41  1  0
 10 11  1  0
 10 42  1  0
 11 16  2  0
 11 12  1  0
 12 13  2  0
 12 43  1  0
 13 14  1  0
 13 44  1  0
 14 15  2  0
 14 45  1  0
 15 16  1  0
 16 17  1  0
 17 18  1  0
 18 46  1  0
 19 18  1  0
 19 31  2  0
 19 20  1  0
 20 21  1  0
 20 22  1  0
 22 23  2  0
 22 47  1  0
 23 24  1  0
 23 31  1  0
 24 30  1  0
 24 25  2  0
 25 26  1  0
 25 48  1  0
 26 27  2  0
 26 49  1  0
 27 28  1  0
 27 29  1  0
 28 50  1  0
 28 51  1  0
 29 30  2  0
 29 52  1  0
 30 53  1  0
 31 32  1  0
M  CHG  1  31   1
M  END
>  <DOCK_score>  (1) 
-58.759472

>  <SMILES>  (1) 
CCC=C[C@H](O)c1ccc2cccnc2c1Nc1[nH]cc(-c2ccc(N)cc2)[nH+]1

$$$$
