Cc1cccc(-c2cccc(C3=CC[N@H+](C(c4ccccc4)c4ccccc4)CC3)c2)c1CCl
     RDKit          3D

 65 69  0  0  1  0  0  0  0  0999 V2000
  137.2821  136.3898  167.7878 C   0  0  0  0  0  0  0  0  0  0  0  0
  137.6062  136.1187  166.3412 C   0  0  0  0  0  0  0  0  0  0  0  0
  138.7548  135.4224  166.0099 C   0  0  0  0  0  0  0  0  0  0  0  0
  139.0583  135.1701  164.6844 C   0  0  0  0  0  0  0  0  0  0  0  0
  138.2128  135.6075  163.6848 C   0  0  0  0  0  0  0  0  0  0  0  0
  137.0581  136.3145  164.0124 C   0  0  0  0  0  0  0  0  0  0  0  0
  136.1487  136.7930  162.9416 C   0  0  0  0  0  0  0  0  0  0  0  0
  136.3338  138.0564  162.3813 C   0  0  0  0  0  0  0  0  0  0  0  0
  135.4888  138.5042  161.3850 C   0  0  0  0  0  0  0  0  0  0  0  0
  134.4556  137.7051  160.9373 C   0  0  0  0  0  0  0  0  0  0  0  0
  134.2597  136.4389  161.4908 C   0  0  0  0  0  0  0  0  0  0  0  0
  133.1528  135.5841  161.0119 C   0  0  0  0  0  0  0  0  0  0  0  0
  131.9180  136.0236  161.1238 C   0  0  0  0  0  0  0  0  0  0  0  0
  130.7248  135.2305  160.6743 C   0  0  0  0  0  0  0  0  0  0  0  0
  131.1350  134.1717  159.7446 N   0  0  2  0  0  0  0  0  0  0  0  0
  131.4678  134.5845  158.8862 H   0  0  0  0  0  0  0  0  0  0  0  0
  129.9894  133.2980  159.4581 C   0  0  0  0  0  0  0  0  0  0  0  0
  128.8819  134.1095  158.8366 C   0  0  0  0  0  0  0  0  0  0  0  0
  127.5634  133.7431  159.0320 C   0  0  0  0  0  0  0  0  0  0  0  0
  126.5475  134.4877  158.4625 C   0  0  0  0  0  0  0  0  0  0  0  0
  126.8501  135.5983  157.6971 C   0  0  0  0  0  0  0  0  0  0  0  0
  128.1688  135.9613  157.4968 C   0  0  0  0  0  0  0  0  0  0  0  0
  129.1845  135.2199  158.0709 C   0  0  0  0  0  0  0  0  0  0  0  0
  130.4126  132.2116  158.5034 C   0  0  0  0  0  0  0  0  0  0  0  0
  130.3015  132.4080  157.1396 C   0  0  0  0  0  0  0  0  0  0  0  0
  130.6934  131.4129  156.2637 C   0  0  0  0  0  0  0  0  0  0  0  0
  131.1887  130.2183  156.7518 C   0  0  0  0  0  0  0  0  0  0  0  0
  131.2948  130.0197  158.1158 C   0  0  0  0  0  0  0  0  0  0  0  0
  130.9066  131.0163  158.9915 C   0  0  0  0  0  0  0  0  0  0  0  0
  132.2133  133.3835  160.3622 C   0  0  0  0  0  0  0  0  0  0  0  0
  133.4787  134.2431  160.4138 C   0  0  0  0  0  0  0  0  0  0  0  0
  135.1067  135.9848  162.5000 C   0  0  0  0  0  0  0  0  0  0  0  0
  136.7571  136.5660  165.3497 C   0  0  0  0  0  0  0  0  0  0  0  0
  135.5068  137.3252  165.7122 C   0  0  0  0  0  0  0  0  0  0  0  0
  135.8724  139.0897  165.7761 Cl  0  0  0  0  0  0  0  0  0  0  0  0
  136.6817  135.5715  168.1852 H   0  0  0  0  0  0  0  0  0  0  0  0
  138.2072  136.4722  168.3582 H   0  0  0  0  0  0  0  0  0  0  0  0
  136.7227  137.3222  167.8663 H   0  0  0  0  0  0  0  0  0  0  0  0
  139.4165  135.0743  166.7891 H   0  0  0  0  0  0  0  0  0  0  0  0
  139.9565  134.6264  164.4312 H   0  0  0  0  0  0  0  0  0  0  0  0
  138.4484  135.4057  162.6503 H   0  0  0  0  0  0  0  0  0  0  0  0
  137.1405  138.6860  162.7268 H   0  0  0  0  0  0  0  0  0  0  0  0
  135.6364  139.4837  160.9546 H   0  0  0  0  0  0  0  0  0  0  0  0
  133.7978  138.0606  160.1580 H   0  0  0  0  0  0  0  0  0  0  0  0
  131.7550  136.9986  161.5590 H   0  0  0  0  0  0  0  0  0  0  0  0
  130.0182  135.8942  160.1758 H   0  0  0  0  0  0  0  0  0  0  0  0
  130.2423  134.7813  161.5421 H   0  0  0  0  0  0  0  0  0  0  0  0
  129.6343  132.8487  160.3854 H   0  0  0  0  0  0  0  0  0  0  0  0
  127.3269  132.8754  159.6301 H   0  0  0  0  0  0  0  0  0  0  0  0
  125.5174  134.2014  158.6151 H   0  0  0  0  0  0  0  0  0  0  0  0
  126.0563  136.1797  157.2517 H   0  0  0  0  0  0  0  0  0  0  0  0
  128.4054  136.8265  156.8953 H   0  0  0  0  0  0  0  0  0  0  0  0
  130.2146  135.5059  157.9180 H   0  0  0  0  0  0  0  0  0  0  0  0
  129.9114  133.3401  156.7583 H   0  0  0  0  0  0  0  0  0  0  0  0
  130.6101  131.5679  155.1981 H   0  0  0  0  0  0  0  0  0  0  0  0
  131.4923  129.4398  156.0676 H   0  0  0  0  0  0  0  0  0  0  0  0
  131.6816  129.0863  158.4971 H   0  0  0  0  0  0  0  0  0  0  0  0
  130.9896  130.8613  160.0571 H   0  0  0  0  0  0  0  0  0  0  0  0
  131.9239  133.0970  161.3733 H   0  0  0  0  0  0  0  0  0  0  0  0
  132.3992  132.4891  159.7676 H   0  0  0  0  0  0  0  0  0  0  0  0
  134.2308  133.7457  161.0262 H   0  0  0  0  0  0  0  0  0  0  0  0
  133.8659  134.3805  159.4041 H   0  0  0  0  0  0  0  0  0  0  0  0
  134.9569  135.0075  162.9348 H   0  0  0  0  0  0  0  0  0  0  0  0
  134.7388  137.1402  164.9612 H   0  0  0  0  0  0  0  0  0  0  0  0
  135.1496  136.9926  166.6868 H   0  0  0  0  0  0  0  0  0  0  0  0
  1  2  1  0
  1 36  1  0
  1 37  1  0
  1 38  1  0
  2 33  2  0
  2  3  1  0
  3  4  2  0
  3 39  1  0
  4  5  1  0
  4 40  1  0
  5  6  2  0
  5 41  1  0
  6  7  1  0
  6 33  1  0
  7 32  1  0
  7  8  2  0
  8  9  1  0
  8 42  1  0
  9 10  2  0
  9 43  1  0
 10 11  1  0
 10 44  1  0
 11 12  1  0
 11 32  2  0
 12 31  1  0
 12 13  2  0
 13 14  1  0
 13 45  1  0
 14 15  1  0
 14 46  1  0
 14 47  1  0
 15 16  1  6
 15 17  1  0
 15 30  1  0
 17 18  1  0
 17 24  1  0
 17 48  1  0
 18 23  1  0
 18 19  2  0
 19 20  1  0
 19 49  1  0
 20 21  2  0
 20 50  1  0
 21 22  1  0
 21 51  1  0
 22 23  2  0
 22 52  1  0
 23 53  1  0
 24 29  1  0
 24 25  2  0
 25 26  1  0
 25 54  1  0
 26 27  2  0
 26 55  1  0
 27 28  1  0
 27 56  1  0
 28 29  2  0
 28 57  1  0
 29 58  1  0
 30 31  1  0
 30 59  1  0
 30 60  1  0
 31 61  1  0
 31 62  1  0
 32 63  1  0
 33 34  1  0
 34 35  1  0
 34 64  1  0
 34 65  1  0
M  CHG  1  15   1
M  END
>  <DOCK_score>  (1) 
-56.462807

>  <SMILES>  (1) 
Cc1cccc(-c2cccc(C3=CC[N@H+](C(c4ccccc4)c4ccccc4)CC3)c2)c1CCl

$$$$
