O=C1CCC(NC(NC2CC3COC[C@H]3C2)=[NH+]Cc2ncccc2O)CN1
     RDKit          3D

 55 58  0  0  1  0  0  0  0  0999 V2000
  123.7634  133.9747  162.0925 O   0  0  0  0  0  0  0  0  0  0  0  0
  124.9436  134.0475  161.8229 C   0  0  0  0  0  0  0  0  0  0  0  0
  125.7974  132.8301  162.0337 C   0  0  0  0  0  0  0  0  0  0  0  0
  127.2748  133.2291  162.0639 C   0  0  0  0  0  0  0  0  0  0  0  0
  127.5598  134.1252  160.8525 C   0  0  2  0  0  0  0  0  0  0  0  0
  128.9993  134.3805  160.7578 N   0  0  0  0  0  0  0  0  0  0  0  0
  129.5804  134.5931  159.5301 C   0  0  0  0  0  0  0  0  0  0  0  0
  130.9314  134.8328  159.4413 N   0  0  0  0  0  0  0  0  0  0  0  0
  131.7515  134.8615  160.6548 C   0  0  2  0  0  0  0  0  0  0  0  0
  131.3689  136.0677  161.5471 C   0  0  0  0  0  0  0  0  0  0  0  0
  132.6252  136.3245  162.4022 C   0  0  1  0  0  0  0  0  0  0  0  0
  132.5539  135.4408  163.6682 C   0  0  0  0  0  0  0  0  0  0  0  0
  133.8996  134.9375  163.8335 O   0  0  0  0  0  0  0  0  0  0  0  0
  134.3167  134.5723  162.4977 C   0  0  0  0  0  0  0  0  0  0  0  0
  133.8219  135.7349  161.6075 C   0  0  1  0  0  0  0  0  0  0  0  0
  134.6010  136.4737  161.4202 H   0  0  0  0  0  0  0  0  0  0  0  0
  133.2458  135.1499  160.3031 C   0  0  0  0  0  0  0  0  0  0  0  0
  128.8507  134.5674  158.4504 N   0  0  0  0  0  0  0  0  0  0  0  0
  127.9182  134.8320  158.4889 H   0  0  0  0  0  0  0  0  0  0  0  0
  129.4387  134.1389  157.1789 C   0  0  0  0  0  0  0  0  0  0  0  0
  129.9442  132.7253  157.3103 C   0  0  0  0  0  0  0  0  0  0  0  0
  129.8064  132.0870  158.4557 N   0  0  0  0  0  0  0  0  0  0  0  0
  130.2328  130.8498  158.6169 C   0  0  0  0  0  0  0  0  0  0  0  0
  130.8464  130.1700  157.5811 C   0  0  0  0  0  0  0  0  0  0  0  0
  131.0115  130.8037  156.3603 C   0  0  0  0  0  0  0  0  0  0  0  0
  130.5446  132.1072  156.2234 C   0  0  0  0  0  0  0  0  0  0  0  0
  130.6796  132.7673  155.0430 O   0  0  0  0  0  0  0  0  0  0  0  0
  126.8150  135.4481  161.0361 C   0  0  0  0  0  0  0  0  0  0  0  0
  125.4139  135.2047  161.3557 N   0  0  0  0  0  0  0  0  0  0  0  0
  125.6292  132.1249  161.2198 H   0  0  0  0  0  0  0  0  0  0  0  0
  125.5295  132.3611  162.9804 H   0  0  0  0  0  0  0  0  0  0  0  0
  127.8972  132.3357  162.0138 H   0  0  0  0  0  0  0  0  0  0  0  0
  127.4888  133.7751  162.9827 H   0  0  0  0  0  0  0  0  0  0  0  0
  127.2153  133.6319  159.9436 H   0  0  0  0  0  0  0  0  0  0  0  0
  129.5423  134.3998  161.5613 H   0  0  0  0  0  0  0  0  0  0  0  0
  131.3413  134.9825  158.5750 H   0  0  0  0  0  0  0  0  0  0  0  0
  131.6581  133.9269  161.2079 H   0  0  0  0  0  0  0  0  0  0  0  0
  130.5199  135.8168  162.1830 H   0  0  0  0  0  0  0  0  0  0  0  0
  131.1403  136.9397  160.9345 H   0  0  0  0  0  0  0  0  0  0  0  0
  132.7635  137.3792  162.6405 H   0  0  0  0  0  0  0  0  0  0  0  0
  131.8551  134.6176  163.5189 H   0  0  0  0  0  0  0  0  0  0  0  0
  132.2618  136.0370  164.5327 H   0  0  0  0  0  0  0  0  0  0  0  0
  133.8485  133.6356  162.1952 H   0  0  0  0  0  0  0  0  0  0  0  0
  135.4024  134.4898  162.4472 H   0  0  0  0  0  0  0  0  0  0  0  0
  133.3252  135.8749  159.4930 H   0  0  0  0  0  0  0  0  0  0  0  0
  133.7605  134.2258  160.0402 H   0  0  0  0  0  0  0  0  0  0  0  0
  128.6820  134.1828  156.3956 H   0  0  0  0  0  0  0  0  0  0  0  0
  130.2673  134.7985  156.9211 H   0  0  0  0  0  0  0  0  0  0  0  0
  130.1013  130.3611  159.5708 H   0  0  0  0  0  0  0  0  0  0  0  0
  131.1927  129.1568  157.7221 H   0  0  0  0  0  0  0  0  0  0  0  0
  131.4874  130.2968  155.5338 H   0  0  0  0  0  0  0  0  0  0  0  0
  130.3266  133.6674  155.0531 H   0  0  0  0  0  0  0  0  0  0  0  0
  127.2767  136.0119  161.8468 H   0  0  0  0  0  0  0  0  0  0  0  0
  126.8791  136.0284  160.1157 H   0  0  0  0  0  0  0  0  0  0  0  0
  124.7841  135.9297  161.2198 H   0  0  0  0  0  0  0  0  0  0  0  0
  1  2  2  0
  2 29  1  0
  2  3  1  0
  3  4  1  0
  3 30  1  0
  3 31  1  0
  4  5  1  0
  4 32  1  0
  4 33  1  0
  5  6  1  0
  5 28  1  0
  5 34  1  6
  6 35  1  0
  7  6  1  0
  7  8  1  0
  7 18  2  0
  8  9  1  0
  8 36  1  0
  9 17  1  0
  9 10  1  0
  9 37  1  1
 10 11  1  0
 10 38  1  0
 10 39  1  0
 11 15  1  0
 11 12  1  0
 11 40  1  1
 12 13  1  0
 12 41  1  0
 12 42  1  0
 13 14  1  0
 14 15  1  0
 14 43  1  0
 14 44  1  0
 15 16  1  6
 15 17  1  0
 17 45  1  0
 17 46  1  0
 18 19  1  0
 18 20  1  0
 20 21  1  0
 20 47  1  0
 20 48  1  0
 21 26  1  0
 21 22  2  0
 22 23  1  0
 23 24  2  0
 23 49  1  0
 24 25  1  0
 24 50  1  0
 25 26  2  0
 25 51  1  0
 26 27  1  0
 27 52  1  0
 28 29  1  0
 28 53  1  0
 28 54  1  0
 29 55  1  0
M  CHG  1  18   1
M  END
>  <DOCK_score>  (1) 
-48.990456

>  <SMILES>  (1) 
O=C1CCC(NC(NC2CC3COC[C@H]3C2)=[NH+]Cc2ncccc2O)CN1

$$$$
