CCc1cccc([C@@H](Nc2[nH]cc(-c3ccc(F)cc3)[nH+]2)C(Cc2ccccc2)c2ccccc2)c1
     RDKit          3D

 67 71  0  0  1  0  0  0  0  0999 V2000
  125.7577  131.1639  161.1599 C   0  0  0  0  0  0  0  0  0  0  0  0
  125.7677  132.4482  161.9915 C   0  0  0  0  0  0  0  0  0  0  0  0
  126.3007  133.5835  161.1560 C   0  0  0  0  0  0  0  0  0  0  0  0
  125.4342  134.3531  160.4020 C   0  0  0  0  0  0  0  0  0  0  0  0
  125.9231  135.3940  159.6354 C   0  0  0  0  0  0  0  0  0  0  0  0
  127.2785  135.6658  159.6226 C   0  0  0  0  0  0  0  0  0  0  0  0
  128.1449  134.8966  160.3765 C   0  0  0  0  0  0  0  0  0  0  0  0
  129.6224  135.1926  160.3621 C   0  0  1  0  0  0  0  0  0  0  0  0
  130.1406  134.4870  161.0116 H   0  0  0  0  0  0  0  0  0  0  0  0
  130.1330  135.0638  158.9951 N   0  0  0  0  0  0  0  0  0  0  0  0
  130.0275  133.8554  158.3278 C   0  0  0  0  0  0  0  0  0  0  0  0
  129.4738  132.7184  158.8299 N   0  0  0  0  0  0  0  0  0  0  0  0
  129.0853  132.6094  159.7120 H   0  0  0  0  0  0  0  0  0  0  0  0
  129.5670  131.7526  157.8566 C   0  0  0  0  0  0  0  0  0  0  0  0
  130.1696  132.3289  156.7872 C   0  0  0  0  0  0  0  0  0  0  0  0
  130.4766  131.6659  155.4960 C   0  0  0  0  0  0  0  0  0  0  0  0
  129.9244  132.1517  154.3122 C   0  0  0  0  0  0  0  0  0  0  0  0
  130.2167  131.5348  153.1131 C   0  0  0  0  0  0  0  0  0  0  0  0
  131.0484  130.4281  153.0857 C   0  0  0  0  0  0  0  0  0  0  0  0
  131.3277  129.8232  151.9103 F   0  0  0  0  0  0  0  0  0  0  0  0
  131.5962  129.9383  154.2609 C   0  0  0  0  0  0  0  0  0  0  0  0
  131.3136  130.5520  155.4642 C   0  0  0  0  0  0  0  0  0  0  0  0
  130.4451  133.6179  157.1082 N   0  0  0  0  0  0  0  0  0  0  0  0
  130.8781  134.2621  156.5265 H   0  0  0  0  0  0  0  0  0  0  0  0
  129.8618  136.6180  160.8639 C   0  0  1  0  0  0  0  0  0  0  0  0
  129.3286  136.7524  162.2917 C   0  0  0  0  0  0  0  0  0  0  0  0
  129.1065  138.2086  162.6100 C   0  0  0  0  0  0  0  0  0  0  0  0
  130.1243  138.9562  163.1721 C   0  0  0  0  0  0  0  0  0  0  0  0
  129.9221  140.2932  163.4595 C   0  0  0  0  0  0  0  0  0  0  0  0
  128.6988  140.8799  163.1945 C   0  0  0  0  0  0  0  0  0  0  0  0
  127.6794  140.1309  162.6370 C   0  0  0  0  0  0  0  0  0  0  0  0
  127.8833  138.7953  162.3448 C   0  0  0  0  0  0  0  0  0  0  0  0
  131.3393  136.9140  160.8496 C   0  0  0  0  0  0  0  0  0  0  0  0
  131.7832  138.2065  160.6412 C   0  0  0  0  0  0  0  0  0  0  0  0
  133.1385  138.4790  160.6329 C   0  0  0  0  0  0  0  0  0  0  0  0
  134.0501  137.4573  160.8225 C   0  0  0  0  0  0  0  0  0  0  0  0
  133.6063  136.1638  161.0257 C   0  0  0  0  0  0  0  0  0  0  0  0
  132.2510  135.8923  161.0392 C   0  0  0  0  0  0  0  0  0  0  0  0
  127.6564  133.8519  161.1393 C   0  0  0  0  0  0  0  0  0  0  0  0
  125.1212  131.3020  160.2859 H   0  0  0  0  0  0  0  0  0  0  0  0
  126.7727  130.9323  160.8371 H   0  0  0  0  0  0  0  0  0  0  0  0
  125.3722  130.3428  161.7642 H   0  0  0  0  0  0  0  0  0  0  0  0
  126.4042  132.3102  162.8654 H   0  0  0  0  0  0  0  0  0  0  0  0
  124.7526  132.6799  162.3142 H   0  0  0  0  0  0  0  0  0  0  0  0
  124.3753  134.1405  160.4117 H   0  0  0  0  0  0  0  0  0  0  0  0
  125.2463  135.9949  159.0461 H   0  0  0  0  0  0  0  0  0  0  0  0
  127.6607  136.4790  159.0233 H   0  0  0  0  0  0  0  0  0  0  0  0
  130.5450  135.8253  158.5575 H   0  0  0  0  0  0  0  0  0  0  0  0
  129.2225  130.7316  157.9282 H   0  0  0  0  0  0  0  0  0  0  0  0
  129.2720  133.0121  154.3330 H   0  0  0  0  0  0  0  0  0  0  0  0
  129.7924  131.9131  152.1947 H   0  0  0  0  0  0  0  0  0  0  0  0
  132.2447  129.0750  154.2353 H   0  0  0  0  0  0  0  0  0  0  0  0
  131.7408  130.1699  156.3796 H   0  0  0  0  0  0  0  0  0  0  0  0
  129.3436  137.3235  160.2146 H   0  0  0  0  0  0  0  0  0  0  0  0
  128.3854  136.2133  162.3795 H   0  0  0  0  0  0  0  0  0  0  0  0
  130.0527  136.3341  162.9909 H   0  0  0  0  0  0  0  0  0  0  0  0
  131.0785  138.4968  163.3834 H   0  0  0  0  0  0  0  0  0  0  0  0
  130.7185  140.8783  163.8954 H   0  0  0  0  0  0  0  0  0  0  0  0
  128.5395  141.9233  163.4231 H   0  0  0  0  0  0  0  0  0  0  0  0
  126.7235  140.5892  162.4303 H   0  0  0  0  0  0  0  0  0  0  0  0
  127.0867  138.2100  161.9096 H   0  0  0  0  0  0  0  0  0  0  0  0
  131.0712  139.0040  160.4887 H   0  0  0  0  0  0  0  0  0  0  0  0
  133.4853  139.4893  160.4739 H   0  0  0  0  0  0  0  0  0  0  0  0
  135.1090  137.6694  160.8116 H   0  0  0  0  0  0  0  0  0  0  0  0
  134.3185  135.3655  161.1735 H   0  0  0  0  0  0  0  0  0  0  0  0
  131.9042  134.8818  161.1976 H   0  0  0  0  0  0  0  0  0  0  0  0
  128.3338  133.2481  161.7247 H   0  0  0  0  0  0  0  0  0  0  0  0
  1  2  1  0
  1 40  1  0
  1 41  1  0
  1 42  1  0
  2  3  1  0
  2 43  1  0
  2 44  1  0
  3 39  2  0
  3  4  1  0
  4  5  2  0
  4 45  1  0
  5  6  1  0
  5 46  1  0
  6  7  2  0
  6 47  1  0
  7  8  1  0
  7 39  1  0
  8  9  1  1
  8 10  1  0
  8 25  1  0
 10 48  1  0
 11 10  1  0
 11 23  2  0
 11 12  1  0
 12 13  1  0
 12 14  1  0
 14 15  2  0
 14 49  1  0
 15 16  1  0
 15 23  1  0
 16 22  1  0
 16 17  2  0
 17 18  1  0
 17 50  1  0
 18 19  2  0
 18 51  1  0
 19 20  1  0
 19 21  1  0
 21 22  2  0
 21 52  1  0
 22 53  1  0
 23 24  1  0
 25 26  1  0
 25 33  1  0
 25 54  1  6
 26 27  1  0
 26 55  1  0
 26 56  1  0
 27 32  1  0
 27 28  2  0
 28 29  1  0
 28 57  1  0
 29 30  2  0
 29 58  1  0
 30 31  1  0
 30 59  1  0
 31 32  2  0
 31 60  1  0
 32 61  1  0
 33 38  1  0
 33 34  2  0
 34 35  1  0
 34 62  1  0
 35 36  2  0
 35 63  1  0
 36 37  1  0
 36 64  1  0
 37 38  2  0
 37 65  1  0
 38 66  1  0
 39 67  1  0
M  CHG  1  23   1
M  END
>  <DOCK_score>  (1) 
-63.974125

>  <SMILES>  (1) 
CCc1cccc([C@@H](Nc2[nH]cc(-c3ccc(F)cc3)[nH+]2)C(Cc2ccccc2)c2ccccc2)c1

$$$$
