Oc1ccc(-c2c[nH]c(Nc3ccc(Nc4ccc(Sc5ccc(F)cc5)cc4)cc3)[nH+]2)cc1
     RDKit          3D

 56 60  0  0  1  0  0  0  0  0999 V2000
  131.4752  129.6528  151.4897 O   0  0  0  0  0  0  0  0  0  0  0  0
  131.1596  130.3221  152.6298 C   0  0  0  0  0  0  0  0  0  0  0  0
  130.6865  131.6255  152.5593 C   0  0  0  0  0  0  0  0  0  0  0  0
  130.3654  132.3074  153.7145 C   0  0  0  0  0  0  0  0  0  0  0  0
  130.5162  131.6866  154.9533 C   0  0  0  0  0  0  0  0  0  0  0  0
  130.1718  132.4172  156.1977 C   0  0  0  0  0  0  0  0  0  0  0  0
  129.7182  131.8624  157.3490 C   0  0  0  0  0  0  0  0  0  0  0  0
  129.5321  132.8912  158.2410 N   0  0  0  0  0  0  0  0  0  0  0  0
  129.2165  132.8098  159.1545 H   0  0  0  0  0  0  0  0  0  0  0  0
  129.8691  134.0461  157.6043 C   0  0  0  0  0  0  0  0  0  0  0  0
  129.8192  135.3156  158.1559 N   0  0  0  0  0  0  0  0  0  0  0  0
  128.8751  135.6119  159.1467 C   0  0  0  0  0  0  0  0  0  0  0  0
  129.1606  136.5657  160.1150 C   0  0  0  0  0  0  0  0  0  0  0  0
  128.2316  136.8544  161.0947 C   0  0  0  0  0  0  0  0  0  0  0  0
  127.0072  136.1985  161.1056 C   0  0  0  0  0  0  0  0  0  0  0  0
  126.0634  136.4949  162.0955 N   0  0  0  0  0  0  0  0  0  0  0  0
  126.3792  136.2983  163.4447 C   0  0  0  0  0  0  0  0  0  0  0  0
  125.8039  137.1059  164.4174 C   0  0  0  0  0  0  0  0  0  0  0  0
  126.1108  136.9083  165.7487 C   0  0  0  0  0  0  0  0  0  0  0  0
  127.0042  135.9091  166.1147 C   0  0  0  0  0  0  0  0  0  0  0  0
  127.4016  135.6615  167.8133 S   0  0  0  0  0  0  0  0  0  0  0  0
  128.7921  136.7170  168.0531 C   0  0  0  0  0  0  0  0  0  0  0  0
  128.6048  138.0349  168.4514 C   0  0  0  0  0  0  0  0  0  0  0  0
  129.6963  138.8589  168.6425 C   0  0  0  0  0  0  0  0  0  0  0  0
  130.9762  138.3755  168.4284 C   0  0  0  0  0  0  0  0  0  0  0  0
  132.0421  139.1850  168.6115 F   0  0  0  0  0  0  0  0  0  0  0  0
  131.1652  137.0636  168.0269 C   0  0  0  0  0  0  0  0  0  0  0  0
  130.0772  136.2344  167.8386 C   0  0  0  0  0  0  0  0  0  0  0  0
  127.5838  135.1051  165.1412 C   0  0  0  0  0  0  0  0  0  0  0  0
  127.2720  135.2989  163.8104 C   0  0  0  0  0  0  0  0  0  0  0  0
  126.7217  135.2446  160.1370 C   0  0  0  0  0  0  0  0  0  0  0  0
  127.6527  134.9523  159.1605 C   0  0  0  0  0  0  0  0  0  0  0  0
  130.2541  133.7579  156.3847 N   0  0  0  0  0  0  0  0  0  0  0  0
  130.5508  134.4010  155.7218 H   0  0  0  0  0  0  0  0  0  0  0  0
  130.9967  130.3800  155.0208 C   0  0  0  0  0  0  0  0  0  0  0  0
  131.3109  129.7015  153.8618 C   0  0  0  0  0  0  0  0  0  0  0  0
  131.3376  130.1659  150.6814 H   0  0  0  0  0  0  0  0  0  0  0  0
  130.5700  132.1060  151.5991 H   0  0  0  0  0  0  0  0  0  0  0  0
  129.9973  133.3213  153.6591 H   0  0  0  0  0  0  0  0  0  0  0  0
  129.5414  130.8127  157.5316 H   0  0  0  0  0  0  0  0  0  0  0  0
  130.4383  135.9994  157.8558 H   0  0  0  0  0  0  0  0  0  0  0  0
  130.1111  137.0782  160.1042 H   0  0  0  0  0  0  0  0  0  0  0  0
  128.4556  137.5929  161.8503 H   0  0  0  0  0  0  0  0  0  0  0  0
  125.1904  136.8366  161.8464 H   0  0  0  0  0  0  0  0  0  0  0  0
  125.1132  137.8859  164.1326 H   0  0  0  0  0  0  0  0  0  0  0  0
  125.6604  137.5337  166.5054 H   0  0  0  0  0  0  0  0  0  0  0  0
  127.6065  138.4135  168.6144 H   0  0  0  0  0  0  0  0  0  0  0  0
  129.5514  139.8824  168.9554 H   0  0  0  0  0  0  0  0  0  0  0  0
  132.1644  136.6890  167.8603 H   0  0  0  0  0  0  0  0  0  0  0  0
  130.2251  135.2116  167.5247 H   0  0  0  0  0  0  0  0  0  0  0  0
  128.2780  134.3281  165.4255 H   0  0  0  0  0  0  0  0  0  0  0  0
  127.7226  134.6739  163.0537 H   0  0  0  0  0  0  0  0  0  0  0  0
  125.7711  134.7321  160.1476 H   0  0  0  0  0  0  0  0  0  0  0  0
  127.4310  134.2104  158.4077 H   0  0  0  0  0  0  0  0  0  0  0  0
  131.1188  129.8978  155.9795 H   0  0  0  0  0  0  0  0  0  0  0  0
  131.6795  128.6877  153.9133 H   0  0  0  0  0  0  0  0  0  0  0  0
  1  2  1  0
  1 37  1  0
  2 36  2  0
  2  3  1  0
  3  4  2  0
  3 38  1  0
  4  5  1  0
  4 39  1  0
  5  6  1  0
  5 35  2  0
  6 33  1  0
  6  7  2  0
  7  8  1  0
  7 40  1  0
  8  9  1  0
  8 10  1  0
 10 11  1  0
 10 33  2  0
 11 12  1  0
 11 41  1  0
 12 32  1  0
 12 13  2  0
 13 14  1  0
 13 42  1  0
 14 15  2  0
 14 43  1  0
 15 16  1  0
 15 31  1  0
 16 17  1  0
 16 44  1  0
 17 30  1  0
 17 18  2  0
 18 19  1  0
 18 45  1  0
 19 20  2  0
 19 46  1  0
 20 21  1  0
 20 29  1  0
 21 22  1  0
 22 28  1  0
 22 23  2  0
 23 24  1  0
 23 47  1  0
 24 25  2  0
 24 48  1  0
 25 26  1  0
 25 27  1  0
 27 28  2  0
 27 49  1  0
 28 50  1  0
 29 30  2  0
 29 51  1  0
 30 52  1  0
 31 32  2  0
 31 53  1  0
 32 54  1  0
 33 34  1  0
 35 36  1  0
 35 55  1  0
 36 56  1  0
M  CHG  1  33   1
M  END
>  <DOCK_score>  (1) 
-57.777321

>  <SMILES>  (1) 
Oc1ccc(-c2c[nH]c(Nc3ccc(Nc4ccc(Sc5ccc(F)cc5)cc4)cc3)[nH+]2)cc1

$$$$
