C=CCC[C@@H](Cc1ccccn1)Nc1[nH]cc(-c2ccc(CC)cc2)[nH+]1
     RDKit          3D

 53 55  0  0  1  0  0  0  0  0999 V2000
  134.3019  136.2115  163.2628 C   0  0  0  0  0  0  0  0  0  0  0  0
  133.8303  136.4459  162.0633 C   0  0  0  0  0  0  0  0  0  0  0  0
  132.8675  135.4753  161.4292 C   0  0  0  0  0  0  0  0  0  0  0  0
  131.5487  136.1895  161.1265 C   0  0  0  0  0  0  0  0  0  0  0  0
  130.5711  135.2043  160.4827 C   0  0  1  0  0  0  0  0  0  0  0  0
  130.6540  134.2357  160.9759 H   0  0  0  0  0  0  0  0  0  0  0  0
  129.1428  135.7319  160.6320 C   0  0  0  0  0  0  0  0  0  0  0  0
  128.1672  134.5958  160.4626 C   0  0  0  0  0  0  0  0  0  0  0  0
  126.9126  134.8450  159.9388 C   0  0  0  0  0  0  0  0  0  0  0  0
  126.0228  133.7928  159.7867 C   0  0  0  0  0  0  0  0  0  0  0  0
  126.4302  132.5235  160.1689 C   0  0  0  0  0  0  0  0  0  0  0  0
  127.7004  132.3510  160.6849 C   0  0  0  0  0  0  0  0  0  0  0  0
  128.5224  133.3746  160.8108 N   0  0  0  0  0  0  0  0  0  0  0  0
  130.8914  135.0572  159.0608 N   0  0  0  0  0  0  0  0  0  0  0  0
  130.6294  133.8627  158.4121 C   0  0  0  0  0  0  0  0  0  0  0  0
  130.0737  132.7576  158.9800 N   0  0  0  0  0  0  0  0  0  0  0  0
  129.7926  132.6661  159.9038 H   0  0  0  0  0  0  0  0  0  0  0  0
  129.9847  131.7957  158.0033 C   0  0  0  0  0  0  0  0  0  0  0  0
  130.4879  132.3401  156.8678 C   0  0  0  0  0  0  0  0  0  0  0  0
  130.5959  131.6667  155.5505 C   0  0  0  0  0  0  0  0  0  0  0  0
  129.9356  132.1913  154.4407 C   0  0  0  0  0  0  0  0  0  0  0  0
  130.0443  131.5639  153.2163 C   0  0  0  0  0  0  0  0  0  0  0  0
  130.7971  130.4102  153.0918 C   0  0  0  0  0  0  0  0  0  0  0  0
  130.9064  129.7261  151.7534 C   0  0  0  0  0  0  0  0  0  0  0  0
  129.7794  128.7007  151.6112 C   0  0  0  0  0  0  0  0  0  0  0  0
  131.4502  129.8819  154.1910 C   0  0  0  0  0  0  0  0  0  0  0  0
  131.3532  130.5042  155.4191 C   0  0  0  0  0  0  0  0  0  0  0  0
  130.8702  133.6112  157.1486 N   0  0  0  0  0  0  0  0  0  0  0  0
  131.2617  134.2336  156.5159 H   0  0  0  0  0  0  0  0  0  0  0  0
  134.9918  136.9070  163.7173 H   0  0  0  0  0  0  0  0  0  0  0  0
  134.0005  135.3226  163.7973 H   0  0  0  0  0  0  0  0  0  0  0  0
  134.1316  137.3346  161.5287 H   0  0  0  0  0  0  0  0  0  0  0  0
  133.2947  135.0929  160.5022 H   0  0  0  0  0  0  0  0  0  0  0  0
  132.6833  134.6469  162.1132 H   0  0  0  0  0  0  0  0  0  0  0  0
  131.1214  136.5719  162.0535 H   0  0  0  0  0  0  0  0  0  0  0  0
  131.7327  137.0179  160.4425 H   0  0  0  0  0  0  0  0  0  0  0  0
  129.0196  136.1721  161.6214 H   0  0  0  0  0  0  0  0  0  0  0  0
  128.9539  136.4894  159.8713 H   0  0  0  0  0  0  0  0  0  0  0  0
  126.6289  135.8469  159.6521 H   0  0  0  0  0  0  0  0  0  0  0  0
  125.0361  133.9577  159.3801 H   0  0  0  0  0  0  0  0  0  0  0  0
  125.7633  131.6805  160.0643 H   0  0  0  0  0  0  0  0  0  0  0  0
  128.0252  131.3656  160.9849 H   0  0  0  0  0  0  0  0  0  0  0  0
  131.2870  135.7969  158.5737 H   0  0  0  0  0  0  0  0  0  0  0  0
  129.5892  130.7972  158.1178 H   0  0  0  0  0  0  0  0  0  0  0  0
  129.3435  133.0892  154.5377 H   0  0  0  0  0  0  0  0  0  0  0  0
  129.5368  131.9719  152.3547 H   0  0  0  0  0  0  0  0  0  0  0  0
  130.8257  130.4672  150.9588 H   0  0  0  0  0  0  0  0  0  0  0  0
  131.8691  129.2197  151.6819 H   0  0  0  0  0  0  0  0  0  0  0  0
  129.8602  127.9593  152.4062 H   0  0  0  0  0  0  0  0  0  0  0  0
  128.8168  129.2068  151.6830 H   0  0  0  0  0  0  0  0  0  0  0  0
  129.8585  128.2057  150.6433 H   0  0  0  0  0  0  0  0  0  0  0  0
  132.0368  128.9810  154.0880 H   0  0  0  0  0  0  0  0  0  0  0  0
  131.8635  130.0911  156.2766 H   0  0  0  0  0  0  0  0  0  0  0  0
  1  2  2  0
  1 30  1  0
  1 31  1  0
  2  3  1  0
  2 32  1  0
  3  4  1  0
  3 33  1  0
  3 34  1  0
  4  5  1  0
  4 35  1  0
  4 36  1  0
  5  6  1  1
  5  7  1  0
  5 14  1  0
  7  8  1  0
  7 37  1  0
  7 38  1  0
  8 13  1  0
  8  9  2  0
  9 10  1  0
  9 39  1  0
 10 11  2  0
 10 40  1  0
 11 12  1  0
 11 41  1  0
 12 13  2  0
 12 42  1  0
 14 43  1  0
 15 14  1  0
 15 28  2  0
 15 16  1  0
 16 17  1  0
 16 18  1  0
 18 19  2  0
 18 44  1  0
 19 20  1  0
 19 28  1  0
 20 27  1  0
 20 21  2  0
 21 22  1  0
 21 45  1  0
 22 23  2  0
 22 46  1  0
 23 24  1  0
 23 26  1  0
 24 25  1  0
 24 47  1  0
 24 48  1  0
 25 49  1  0
 25 50  1  0
 25 51  1  0
 26 27  2  0
 26 52  1  0
 27 53  1  0
 28 29  1  0
M  CHG  1  28   1
M  END
>  <DOCK_score>  (1) 
-57.250931

>  <SMILES>  (1) 
C=CCC[C@@H](Cc1ccccn1)Nc1[nH]cc(-c2ccc(CC)cc2)[nH+]1

$$$$
