Clc1ccc(SC2=CCCC2)c(Nc2[nH]cc(-c3ccccc3)[nH+]2)c1
     RDKit          3D

 44 47  0  0  1  0  0  0  0  0999 V2000
  133.5854  134.4139  162.4283 Cl  0  0  0  0  0  0  0  0  0  0  0  0
  132.2126  133.9541  161.4702 C   0  0  0  0  0  0  0  0  0  0  0  0
  131.0817  133.4454  162.0840 C   0  0  0  0  0  0  0  0  0  0  0  0
  129.9831  133.0835  161.3273 C   0  0  0  0  0  0  0  0  0  0  0  0
  130.0162  133.2197  159.9468 C   0  0  0  0  0  0  0  0  0  0  0  0
  128.6196  132.7528  158.9794 S   0  0  0  0  0  0  0  0  0  0  0  0
  127.3418  133.7960  159.5986 C   0  0  0  0  0  0  0  0  0  0  0  0
  126.2260  133.3640  160.1492 C   0  0  0  0  0  0  0  0  0  0  0  0
  125.3496  134.5206  160.5707 C   0  0  0  0  0  0  0  0  0  0  0  0
  125.9154  135.7420  159.8103 C   0  0  0  0  0  0  0  0  0  0  0  0
  127.3790  135.3063  159.5692 C   0  0  0  0  0  0  0  0  0  0  0  0
  131.1562  133.7330  159.3275 C   0  0  0  0  0  0  0  0  0  0  0  0
  131.1941  133.8774  157.9354 N   0  0  0  0  0  0  0  0  0  0  0  0
  131.0399  132.7688  157.1198 C   0  0  0  0  0  0  0  0  0  0  0  0
  130.8519  131.4900  157.5470 N   0  0  0  0  0  0  0  0  0  0  0  0
  130.8021  131.1938  158.4693 H   0  0  0  0  0  0  0  0  0  0  0  0
  130.7432  130.6971  156.4310 C   0  0  0  0  0  0  0  0  0  0  0  0
  130.8758  131.5117  155.3547 C   0  0  0  0  0  0  0  0  0  0  0  0
  130.8310  131.0930  153.9324 C   0  0  0  0  0  0  0  0  0  0  0  0
  130.3575  131.9714  152.9592 C   0  0  0  0  0  0  0  0  0  0  0  0
  130.3231  131.5784  151.6368 C   0  0  0  0  0  0  0  0  0  0  0  0
  130.7466  130.3114  151.2778 C   0  0  0  0  0  0  0  0  0  0  0  0
  131.2125  129.4337  152.2400 C   0  0  0  0  0  0  0  0  0  0  0  0
  131.2570  129.8180  153.5648 C   0  0  0  0  0  0  0  0  0  0  0  0
  131.0566  132.7768  155.8090 N   0  0  0  0  0  0  0  0  0  0  0  0
  131.1790  133.5621  155.2529 H   0  0  0  0  0  0  0  0  0  0  0  0
  132.2521  134.0990  160.0947 C   0  0  0  0  0  0  0  0  0  0  0  0
  131.0558  133.3345  163.1580 H   0  0  0  0  0  0  0  0  0  0  0  0
  129.1007  132.6904  161.8100 H   0  0  0  0  0  0  0  0  0  0  0  0
  125.9734  132.3228  160.2856 H   0  0  0  0  0  0  0  0  0  0  0  0
  124.3150  134.3384  160.2799 H   0  0  0  0  0  0  0  0  0  0  0  0
  125.4201  134.6776  161.6471 H   0  0  0  0  0  0  0  0  0  0  0  0
  125.3916  135.8915  158.8662 H   0  0  0  0  0  0  0  0  0  0  0  0
  125.8715  136.6403  160.4261 H   0  0  0  0  0  0  0  0  0  0  0  0
  127.7246  135.6585  158.5972 H   0  0  0  0  0  0  0  0  0  0  0  0
  128.0237  135.6873  160.3612 H   0  0  0  0  0  0  0  0  0  0  0  0
  131.3282  134.7539  157.5422 H   0  0  0  0  0  0  0  0  0  0  0  0
  130.5857  129.6287  156.4137 H   0  0  0  0  0  0  0  0  0  0  0  0
  130.0225  132.9593  153.2391 H   0  0  0  0  0  0  0  0  0  0  0  0
  129.9608  132.2599  150.8814 H   0  0  0  0  0  0  0  0  0  0  0  0
  130.7137  130.0066  150.2422 H   0  0  0  0  0  0  0  0  0  0  0  0
  131.5426  128.4460  151.9540 H   0  0  0  0  0  0  0  0  0  0  0  0
  131.6212  129.1319  154.3153 H   0  0  0  0  0  0  0  0  0  0  0  0
  133.1363  134.4963  159.6184 H   0  0  0  0  0  0  0  0  0  0  0  0
  1  2  1  0
  2 27  2  0
  2  3  1  0
  3  4  2  0
  3 28  1  0
  4  5  1  0
  4 29  1  0
  5  6  1  0
  5 12  2  0
  6  7  1  0
  7 11  1  0
  7  8  2  0
  8  9  1  0
  8 30  1  0
  9 10  1  0
  9 31  1  0
  9 32  1  0
 10 11  1  0
 10 33  1  0
 10 34  1  0
 11 35  1  0
 11 36  1  0
 12 13  1  0
 12 27  1  0
 13 37  1  0
 14 13  1  0
 14 25  2  0
 14 15  1  0
 15 16  1  0
 15 17  1  0
 17 18  2  0
 17 38  1  0
 18 19  1  0
 18 25  1  0
 19 24  1  0
 19 20  2  0
 20 21  1  0
 20 39  1  0
 21 22  2  0
 21 40  1  0
 22 23  1  0
 22 41  1  0
 23 24  2  0
 23 42  1  0
 24 43  1  0
 25 26  1  0
 27 44  1  0
M  CHG  1  25   1
M  END
>  <DOCK_score>  (1) 
-58.224167

>  <SMILES>  (1) 
Clc1ccc(SC2=CCCC2)c(Nc2[nH]cc(-c3ccccc3)[nH+]2)c1

$$$$
