CCc1ccc(-c2c[nH]c(Nc3cnccc3/C3=C/CC/C=C\CC3)[nH+]2)cc1
     RDKit          3D

 55 58  0  0  1  0  0  0  0  0999 V2000
  130.4041  128.6000  151.7031 C   0  0  0  0  0  0  0  0  0  0  0  0
  131.5052  129.6064  152.0447 C   0  0  0  0  0  0  0  0  0  0  0  0
  131.1328  130.3505  153.3010 C   0  0  0  0  0  0  0  0  0  0  0  0
  131.5194  129.8579  154.5345 C   0  0  0  0  0  0  0  0  0  0  0  0
  131.1808  130.5354  155.6881 C   0  0  0  0  0  0  0  0  0  0  0  0
  130.4482  131.7184  155.6087 C   0  0  0  0  0  0  0  0  0  0  0  0
  130.0813  132.4513  156.8451 C   0  0  0  0  0  0  0  0  0  0  0  0
  129.3264  131.9699  157.8640 C   0  0  0  0  0  0  0  0  0  0  0  0
  129.2346  132.9709  158.7995 N   0  0  0  0  0  0  0  0  0  0  0  0
  128.7576  132.9270  159.6431 H   0  0  0  0  0  0  0  0  0  0  0  0
  129.9368  134.0361  158.3247 C   0  0  0  0  0  0  0  0  0  0  0  0
  130.0920  135.2523  158.9694 N   0  0  0  0  0  0  0  0  0  0  0  0
  129.0916  135.7235  159.8209 C   0  0  0  0  0  0  0  0  0  0  0  0
  127.7619  135.3966  159.5966 C   0  0  0  0  0  0  0  0  0  0  0  0
  126.8144  135.8342  160.4019 N   0  0  0  0  0  0  0  0  0  0  0  0
  127.0766  136.6049  161.4407 C   0  0  0  0  0  0  0  0  0  0  0  0
  128.3688  136.9850  161.7369 C   0  0  0  0  0  0  0  0  0  0  0  0
  129.4127  136.5422  160.9174 C   0  0  0  0  0  0  0  0  0  0  0  0
  130.8155  136.9247  161.1973 C   0  0  0  0  0  0  0  0  0  0  0  0
  131.4565  137.6212  160.2602 C   0  0  0  0  0  0  0  0  0  0  0  0
  132.8901  138.0022  160.4306 C   0  0  0  0  0  0  0  0  0  0  0  0
  133.8766  136.9213  160.0726 C   0  0  0  0  0  0  0  0  0  0  0  0
  133.3116  135.5483  160.0401 C   0  0  0  0  0  0  0  0  0  0  0  0
  132.7585  135.0237  161.1057 C   0  0  0  0  0  0  0  0  0  0  0  0
  132.7228  135.7937  162.3968 C   0  0  0  0  0  0  0  0  0  0  0  0
  131.3963  136.5259  162.5040 C   0  0  0  0  0  0  0  0  0  0  0  0
  130.4371  133.7229  157.1544 N   0  0  0  0  0  0  0  0  0  0  0  0
  130.9774  134.3067  156.5992 H   0  0  0  0  0  0  0  0  0  0  0  0
  130.0567  132.2072  154.3636 C   0  0  0  0  0  0  0  0  0  0  0  0
  130.4056  131.5242  153.2163 C   0  0  0  0  0  0  0  0  0  0  0  0
  130.2903  127.8927  152.5247 H   0  0  0  0  0  0  0  0  0  0  0  0
  129.4643  129.1294  151.5465 H   0  0  0  0  0  0  0  0  0  0  0  0
  130.6734  128.0614  150.7946 H   0  0  0  0  0  0  0  0  0  0  0  0
  131.6191  130.3132  151.2234 H   0  0  0  0  0  0  0  0  0  0  0  0
  132.4450  129.0764  152.2015 H   0  0  0  0  0  0  0  0  0  0  0  0
  132.0868  128.9408  154.5949 H   0  0  0  0  0  0  0  0  0  0  0  0
  131.4834  130.1499  156.6505 H   0  0  0  0  0  0  0  0  0  0  0  0
  128.8821  130.9876  157.9272 H   0  0  0  0  0  0  0  0  0  0  0  0
  130.8978  135.7746  158.8323 H   0  0  0  0  0  0  0  0  0  0  0  0
  127.5006  134.7722  158.7551 H   0  0  0  0  0  0  0  0  0  0  0  0
  126.2661  136.9432  162.0691 H   0  0  0  0  0  0  0  0  0  0  0  0
  128.5719  137.6160  162.5896 H   0  0  0  0  0  0  0  0  0  0  0  0
  130.9317  137.9019  159.3527 H   0  0  0  0  0  0  0  0  0  0  0  0
  133.0930  138.8799  159.8148 H   0  0  0  0  0  0  0  0  0  0  0  0
  133.0466  138.2848  161.4742 H   0  0  0  0  0  0  0  0  0  0  0  0
  134.2917  137.1444  159.0885 H   0  0  0  0  0  0  0  0  0  0  0  0
  134.6900  136.9406  160.7994 H   0  0  0  0  0  0  0  0  0  0  0  0
  133.3618  134.9670  159.1313 H   0  0  0  0  0  0  0  0  0  0  0  0
  132.3394  134.0291  161.0600 H   0  0  0  0  0  0  0  0  0  0  0  0
  132.8308  135.1008  163.2359 H   0  0  0  0  0  0  0  0  0  0  0  0
  133.5492  136.5053  162.4248 H   0  0  0  0  0  0  0  0  0  0  0  0
  131.5415  137.4234  163.1125 H   0  0  0  0  0  0  0  0  0  0  0  0
  130.6796  135.8848  163.0245 H   0  0  0  0  0  0  0  0  0  0  0  0
  129.4849  133.1210  154.2966 H   0  0  0  0  0  0  0  0  0  0  0  0
  130.1066  131.9045  152.2507 H   0  0  0  0  0  0  0  0  0  0  0  0
  1  2  1  0
  1 31  1  0
  1 32  1  0
  1 33  1  0
  2  3  1  0
  2 34  1  0
  2 35  1  0
  3 30  2  0
  3  4  1  0
  4  5  2  0
  4 36  1  0
  5  6  1  0
  5 37  1  0
  6  7  1  0
  6 29  2  0
  7 27  1  0
  7  8  2  0
  8  9  1  0
  8 38  1  0
  9 10  1  0
  9 11  1  0
 11 12  1  0
 11 27  2  0
 12 13  1  0
 12 39  1  0
 13 18  1  0
 13 14  2  0
 14 15  1  0
 14 40  1  0
 15 16  2  0
 16 17  1  0
 16 41  1  0
 17 18  2  0
 17 42  1  0
 18 19  1  0
 19 26  1  0
 19 20  2  0
 20 21  1  0
 20 43  1  0
 21 22  1  0
 21 44  1  0
 21 45  1  0
 22 23  1  0
 22 46  1  0
 22 47  1  0
 23 24  2  0
 23 48  1  0
 24 25  1  0
 24 49  1  0
 25 26  1  0
 25 50  1  0
 25 51  1  0
 26 52  1  0
 26 53  1  0
 27 28  1  0
 29 30  1  0
 29 54  1  0
 30 55  1  0
M  CHG  1  27   1
M  END
>  <DOCK_score>  (1) 
-60.427143

>  <SMILES>  (1) 
CCc1ccc(-c2c[nH]c(Nc3cnccc3/C3=C/CC/C=C\CC3)[nH+]2)cc1

$$$$
