CCc1ccc(-c2c[nH]c(N[C@@H](c3cnn(-c4ccc(N)cc4)c3N)c3ccnn3C)[nH+]2)cc1
     RDKit          3D

 62 66  0  0  1  0  0  0  0  0999 V2000
  130.5820  128.3542  151.6947 C   0  0  0  0  0  0  0  0  0  0  0  0
  131.6782  129.3633  152.0421 C   0  0  0  0  0  0  0  0  0  0  0  0
  131.2902  130.1179  153.2875 C   0  0  0  0  0  0  0  0  0  0  0  0
  131.6624  129.6357  154.5289 C   0  0  0  0  0  0  0  0  0  0  0  0
  131.3149  130.3253  155.6728 C   0  0  0  0  0  0  0  0  0  0  0  0
  130.5775  131.5040  155.5756 C   0  0  0  0  0  0  0  0  0  0  0  0
  130.1961  132.2468  156.8017 C   0  0  0  0  0  0  0  0  0  0  0  0
  129.4438  131.7680  157.8233 C   0  0  0  0  0  0  0  0  0  0  0  0
  129.3356  132.7793  158.7467 N   0  0  0  0  0  0  0  0  0  0  0  0
  128.8561  132.7393  159.5889 H   0  0  0  0  0  0  0  0  0  0  0  0
  130.0257  133.8474  158.2619 C   0  0  0  0  0  0  0  0  0  0  0  0
  130.1631  135.0721  158.8924 N   0  0  0  0  0  0  0  0  0  0  0  0
  129.1038  135.5637  159.7769 C   0  0  1  0  0  0  0  0  0  0  0  0
  128.9595  134.8601  160.5968 H   0  0  0  0  0  0  0  0  0  0  0  0
  129.4966  136.9085  160.3322 C   0  0  0  0  0  0  0  0  0  0  0  0
  129.7656  138.0598  159.5868 C   0  0  0  0  0  0  0  0  0  0  0  0
  130.0687  139.0280  160.4137 N   0  0  0  0  0  0  0  0  0  0  0  0
  130.0136  138.5274  161.7208 N   0  0  0  0  0  0  0  0  0  0  0  0
  130.2771  139.2497  162.8946 C   0  0  0  0  0  0  0  0  0  0  0  0
  129.2898  139.3883  163.8607 C   0  0  0  0  0  0  0  0  0  0  0  0
  129.5506  140.0939  165.0181 C   0  0  0  0  0  0  0  0  0  0  0  0
  130.7975  140.6749  165.2111 C   0  0  0  0  0  0  0  0  0  0  0  0
  131.0605  141.3943  166.3808 N   0  0  0  0  0  0  0  0  0  0  0  0
  131.7834  140.5408  164.2418 C   0  0  0  0  0  0  0  0  0  0  0  0
  131.5237  139.8302  163.0871 C   0  0  0  0  0  0  0  0  0  0  0  0
  129.6583  137.2161  161.6490 C   0  0  0  0  0  0  0  0  0  0  0  0
  129.4913  136.3479  162.7242 N   0  0  0  0  0  0  0  0  0  0  0  0
  127.8207  135.6973  158.9979 C   0  0  0  0  0  0  0  0  0  0  0  0
  127.7141  135.9754  157.6779 C   0  0  0  0  0  0  0  0  0  0  0  0
  126.3539  136.0080  157.3534 C   0  0  0  0  0  0  0  0  0  0  0  0
  125.6683  135.7661  158.4412 N   0  0  0  0  0  0  0  0  0  0  0  0
  126.5721  135.5666  159.4928 N   0  0  0  0  0  0  0  0  0  0  0  0
  126.2233  135.2691  160.8842 C   0  0  0  0  0  0  0  0  0  0  0  0
  130.5433  133.5234  157.1021 N   0  0  0  0  0  0  0  0  0  0  0  0
  131.0859  134.1044  156.5463 H   0  0  0  0  0  0  0  0  0  0  0  0
  130.2002  131.9825  154.3221 C   0  0  0  0  0  0  0  0  0  0  0  0
  130.5582  131.2876  153.1847 C   0  0  0  0  0  0  0  0  0  0  0  0
  129.6436  128.8812  151.5229 H   0  0  0  0  0  0  0  0  0  0  0  0
  130.8626  127.8086  150.7939 H   0  0  0  0  0  0  0  0  0  0  0  0
  130.4593  127.6534  152.5205 H   0  0  0  0  0  0  0  0  0  0  0  0
  132.6165  128.8369  152.2133 H   0  0  0  0  0  0  0  0  0  0  0  0
  131.8007  130.0648  151.2158 H   0  0  0  0  0  0  0  0  0  0  0  0
  132.2297  128.7197  154.6033 H   0  0  0  0  0  0  0  0  0  0  0  0
  131.6100  129.9501  156.6416 H   0  0  0  0  0  0  0  0  0  0  0  0
  129.0120  130.7808  157.8967 H   0  0  0  0  0  0  0  0  0  0  0  0
  130.9610  135.6047  158.7487 H   0  0  0  0  0  0  0  0  0  0  0  0
  129.7273  138.1379  158.5103 H   0  0  0  0  0  0  0  0  0  0  0  0
  128.3188  138.9407  163.7085 H   0  0  0  0  0  0  0  0  0  0  0  0
  128.7837  140.1983  165.7715 H   0  0  0  0  0  0  0  0  0  0  0  0
  131.9312  141.7996  166.5158 H   0  0  0  0  0  0  0  0  0  0  0  0
  130.3718  141.4878  167.0578 H   0  0  0  0  0  0  0  0  0  0  0  0
  132.7528  140.9926  164.3913 H   0  0  0  0  0  0  0  0  0  0  0  0
  132.2903  139.7256  162.3336 H   0  0  0  0  0  0  0  0  0  0  0  0
  129.2353  135.4254  162.5676 H   0  0  0  0  0  0  0  0  0  0  0  0
  129.6308  136.6654  163.6301 H   0  0  0  0  0  0  0  0  0  0  0  0
  128.5343  136.1409  156.9951 H   0  0  0  0  0  0  0  0  0  0  0  0
  125.9408  136.2031  156.3748 H   0  0  0  0  0  0  0  0  0  0  0  0
  126.1145  136.2012  161.4388 H   0  0  0  0  0  0  0  0  0  0  0  0
  125.2838  134.7174  160.9133 H   0  0  0  0  0  0  0  0  0  0  0  0
  127.0121  134.6675  161.3358 H   0  0  0  0  0  0  0  0  0  0  0  0
  129.6286  132.8953  154.2410 H   0  0  0  0  0  0  0  0  0  0  0  0
  130.2668  131.6578  152.2129 H   0  0  0  0  0  0  0  0  0  0  0  0
  1  2  1  0
  1 38  1  0
  1 39  1  0
  1 40  1  0
  2  3  1  0
  2 41  1  0
  2 42  1  0
  3 37  2  0
  3  4  1  0
  4  5  2  0
  4 43  1  0
  5  6  1  0
  5 44  1  0
  6  7  1  0
  6 36  2  0
  7 34  1  0
  7  8  2  0
  8  9  1  0
  8 45  1  0
  9 10  1  0
  9 11  1  0
 11 12  1  0
 11 34  2  0
 12 13  1  0
 12 46  1  0
 13 14  1  1
 13 15  1  0
 13 28  1  0
 15 26  2  0
 15 16  1  0
 16 17  2  0
 16 47  1  0
 17 18  1  0
 18 19  1  0
 18 26  1  0
 19 25  1  0
 19 20  2  0
 20 21  1  0
 20 48  1  0
 21 22  2  0
 21 49  1  0
 22 23  1  0
 22 24  1  0
 23 50  1  0
 23 51  1  0
 24 25  2  0
 24 52  1  0
 25 53  1  0
 26 27  1  0
 27 54  1  0
 27 55  1  0
 28 32  1  0
 28 29  2  0
 29 30  1  0
 29 56  1  0
 30 31  2  0
 30 57  1  0
 31 32  1  0
 32 33  1  0
 33 58  1  0
 33 59  1  0
 33 60  1  0
 34 35  1  0
 36 37  1  0
 36 61  1  0
 37 62  1  0
M  CHG  1  34   1
M  END
>  <DOCK_score>  (1) 
-63.28199

>  <SMILES>  (1) 
CCc1ccc(-c2c[nH]c(N[C@@H](c3cnn(-c4ccc(N)cc4)c3N)c3ccnn3C)[nH+]2)cc1

$$$$
