CC=CSc1cc(Nc2[nH]cc(-c3ccncc3)[nH+]2)ccc1O
     RDKit          3D

 40 42  0  0  1  0  0  0  0  0999 V2000
  126.4213  131.2227  160.7602 C   0  0  0  0  0  0  0  0  0  0  0  0
  126.3263  132.7199  160.6168 C   0  0  0  0  0  0  0  0  0  0  0  0
  125.3717  133.2534  159.8754 C   0  0  0  0  0  0  0  0  0  0  0  0
  125.2608  135.0040  159.7079 S   0  0  0  0  0  0  0  0  0  0  0  0
  126.9368  135.5242  159.8657 C   0  0  0  0  0  0  0  0  0  0  0  0
  127.8934  135.0676  158.9705 C   0  0  0  0  0  0  0  0  0  0  0  0
  129.2125  135.4798  159.0974 C   0  0  0  0  0  0  0  0  0  0  0  0
  130.1792  135.0203  158.1951 N   0  0  0  0  0  0  0  0  0  0  0  0
  130.0432  133.7720  157.6107 C   0  0  0  0  0  0  0  0  0  0  0  0
  129.4241  132.6968  158.1718 N   0  0  0  0  0  0  0  0  0  0  0  0
  129.0030  132.6676  159.0451 H   0  0  0  0  0  0  0  0  0  0  0  0
  129.5060  131.6624  157.2746 C   0  0  0  0  0  0  0  0  0  0  0  0
  130.1725  132.1328  156.1901 C   0  0  0  0  0  0  0  0  0  0  0  0
  130.4970  131.3649  154.9647 C   0  0  0  0  0  0  0  0  0  0  0  0
  130.0176  131.7700  153.7148 C   0  0  0  0  0  0  0  0  0  0  0  0
  130.3475  131.0290  152.5995 C   0  0  0  0  0  0  0  0  0  0  0  0
  131.0954  129.9469  152.7022 N   0  0  0  0  0  0  0  0  0  0  0  0
  131.5637  129.5273  153.8629 C   0  0  0  0  0  0  0  0  0  0  0  0
  131.2863  130.2119  155.0272 C   0  0  0  0  0  0  0  0  0  0  0  0
  130.4840  133.4326  156.4241 N   0  0  0  0  0  0  0  0  0  0  0  0
  130.9589  134.0163  155.8120 H   0  0  0  0  0  0  0  0  0  0  0  0
  129.5738  136.3483  160.1196 C   0  0  0  0  0  0  0  0  0  0  0  0
  128.6214  136.8036  161.0120 C   0  0  0  0  0  0  0  0  0  0  0  0
  127.3038  136.3953  160.8897 C   0  0  0  0  0  0  0  0  0  0  0  0
  126.3677  136.8443  161.7695 O   0  0  0  0  0  0  0  0  0  0  0  0
  126.5674  130.7723  159.7784 H   0  0  0  0  0  0  0  0  0  0  0  0
  127.2641  130.9721  161.4041 H   0  0  0  0  0  0  0  0  0  0  0  0
  125.5006  130.8409  161.2015 H   0  0  0  0  0  0  0  0  0  0  0  0
  127.0387  133.3567  161.1202 H   0  0  0  0  0  0  0  0  0  0  0  0
  124.6593  132.6166  159.3721 H   0  0  0  0  0  0  0  0  0  0  0  0
  127.6127  134.3890  158.1785 H   0  0  0  0  0  0  0  0  0  0  0  0
  130.9443  135.5761  157.9793 H   0  0  0  0  0  0  0  0  0  0  0  0
  129.1152  130.6642  157.4063 H   0  0  0  0  0  0  0  0  0  0  0  0
  129.4012  132.6522  153.6239 H   0  0  0  0  0  0  0  0  0  0  0  0
  129.9852  131.3360  151.6296 H   0  0  0  0  0  0  0  0  0  0  0  0
  132.1720  128.6356  153.9011 H   0  0  0  0  0  0  0  0  0  0  0  0
  131.6731  129.8633  155.9734 H   0  0  0  0  0  0  0  0  0  0  0  0
  130.6007  136.6682  160.2172 H   0  0  0  0  0  0  0  0  0  0  0  0
  128.9053  137.4784  161.8060 H   0  0  0  0  0  0  0  0  0  0  0  0
  125.4776  136.5048  161.6042 H   0  0  0  0  0  0  0  0  0  0  0  0
  1  2  1  0
  1 26  1  0
  1 27  1  0
  1 28  1  0
  2  3  2  0
  2 29  1  0
  3  4  1  0
  3 30  1  0
  4  5  1  0
  5 24  2  0
  5  6  1  0
  6  7  2  0
  6 31  1  0
  7  8  1  0
  7 22  1  0
  8 32  1  0
  9  8  1  0
  9 20  2  0
  9 10  1  0
 10 11  1  0
 10 12  1  0
 12 13  2  0
 12 33  1  0
 13 14  1  0
 13 20  1  0
 14 19  1  0
 14 15  2  0
 15 16  1  0
 15 34  1  0
 16 17  2  0
 16 35  1  0
 17 18  1  0
 18 19  2  0
 18 36  1  0
 19 37  1  0
 20 21  1  0
 22 23  2  0
 22 38  1  0
 23 24  1  0
 23 39  1  0
 24 25  1  0
 25 40  1  0
M  CHG  1  20   1
M  END
>  <DOCK_score>  (1) 
-52.977566

>  <SMILES>  (1) 
CC=CSc1cc(Nc2[nH]cc(-c3ccncc3)[nH+]2)ccc1O

$$$$
