CCc1ccc(-c2c[nH]c(N[C@@H](C)Cc3ccccc3-c3ccc(N)cc3)[nH+]2)cc1
     RDKit          3D

 59 62  0  0  1  0  0  0  0  0999 V2000
  130.1733  128.5554  151.5806 C   0  0  0  0  0  0  0  0  0  0  0  0
  131.3003  129.5474  151.8734 C   0  0  0  0  0  0  0  0  0  0  0  0
  130.9963  130.2915  153.1481 C   0  0  0  0  0  0  0  0  0  0  0  0
  131.4356  129.7903  154.3597 C   0  0  0  0  0  0  0  0  0  0  0  0
  131.1651  130.4702  155.5298 C   0  0  0  0  0  0  0  0  0  0  0  0
  130.4378  131.6586  155.4899 C   0  0  0  0  0  0  0  0  0  0  0  0
  130.1390  132.3910  156.7447 C   0  0  0  0  0  0  0  0  0  0  0  0
  129.4428  131.9087  157.8037 C   0  0  0  0  0  0  0  0  0  0  0  0
  129.4019  132.9101  158.7434 N   0  0  0  0  0  0  0  0  0  0  0  0
  128.9728  132.8655  159.6121 H   0  0  0  0  0  0  0  0  0  0  0  0
  130.0750  133.9759  158.2305 C   0  0  0  0  0  0  0  0  0  0  0  0
  130.2648  135.1913  158.8656 N   0  0  0  0  0  0  0  0  0  0  0  0
  129.7178  135.4101  160.2069 C   0  0  1  0  0  0  0  0  0  0  0  0
  128.7270  134.9605  160.2731 H   0  0  0  0  0  0  0  0  0  0  0  0
  130.6400  134.7670  161.2449 C   0  0  0  0  0  0  0  0  0  0  0  0
  129.6152  136.9126  160.4771 C   0  0  0  0  0  0  0  0  0  0  0  0
  128.6348  137.1561  161.5951 C   0  0  0  0  0  0  0  0  0  0  0  0
  127.4256  136.4904  161.6118 C   0  0  0  0  0  0  0  0  0  0  0  0
  126.5249  136.7127  162.6376 C   0  0  0  0  0  0  0  0  0  0  0  0
  126.8301  137.6021  163.6523 C   0  0  0  0  0  0  0  0  0  0  0  0
  128.0359  138.2732  163.6460 C   0  0  0  0  0  0  0  0  0  0  0  0
  128.9493  138.0495  162.6171 C   0  0  0  0  0  0  0  0  0  0  0  0
  130.2497  138.7634  162.6080 C   0  0  0  0  0  0  0  0  0  0  0  0
  131.3580  138.2029  163.2411 C   0  0  0  0  0  0  0  0  0  0  0  0
  132.5669  138.8655  163.2267 C   0  0  0  0  0  0  0  0  0  0  0  0
  132.6783  140.0967  162.5912 C   0  0  0  0  0  0  0  0  0  0  0  0
  133.9018  140.7683  162.5825 N   0  0  0  0  0  0  0  0  0  0  0  0
  131.5729  140.6599  161.9637 C   0  0  0  0  0  0  0  0  0  0  0  0
  130.3636  139.9982  161.9711 C   0  0  0  0  0  0  0  0  0  0  0  0
  130.5191  133.6599  157.0385 N   0  0  0  0  0  0  0  0  0  0  0  0
  131.0349  134.2413  156.4580 H   0  0  0  0  0  0  0  0  0  0  0  0
  129.9927  132.1563  154.2665 C   0  0  0  0  0  0  0  0  0  0  0  0
  130.2739  131.4709  153.1022 C   0  0  0  0  0  0  0  0  0  0  0  0
  130.3930  128.0174  150.6585 H   0  0  0  0  0  0  0  0  0  0  0  0
  130.0910  127.8462  152.4043 H   0  0  0  0  0  0  0  0  0  0  0  0
  129.2328  129.0954  151.4709 H   0  0  0  0  0  0  0  0  0  0  0  0
  132.2407  129.0081  151.9828 H   0  0  0  0  0  0  0  0  0  0  0  0
  131.3825  130.2572  151.0493 H   0  0  0  0  0  0  0  0  0  0  0  0
  131.9950  128.8671  154.3900 H   0  0  0  0  0  0  0  0  0  0  0  0
  131.5127  130.0801  156.4750 H   0  0  0  0  0  0  0  0  0  0  0  0
  129.0041  130.9258  157.8915 H   0  0  0  0  0  0  0  0  0  0  0  0
  130.7599  135.8980  158.4225 H   0  0  0  0  0  0  0  0  0  0  0  0
  130.7131  133.6967  161.0524 H   0  0  0  0  0  0  0  0  0  0  0  0
  131.6307  135.2166  161.1786 H   0  0  0  0  0  0  0  0  0  0  0  0
  130.2330  134.9299  162.2429 H   0  0  0  0  0  0  0  0  0  0  0  0
  130.5942  137.2982  160.7618 H   0  0  0  0  0  0  0  0  0  0  0  0
  129.2725  137.4212  159.5759 H   0  0  0  0  0  0  0  0  0  0  0  0
  127.1826  135.7946  160.8225 H   0  0  0  0  0  0  0  0  0  0  0  0
  125.5801  136.1897  162.6467 H   0  0  0  0  0  0  0  0  0  0  0  0
  126.1231  137.7719  164.4509 H   0  0  0  0  0  0  0  0  0  0  0  0
  128.2730  138.9670  164.4388 H   0  0  0  0  0  0  0  0  0  0  0  0
  131.2708  137.2484  163.7389 H   0  0  0  0  0  0  0  0  0  0  0  0
  133.4268  138.4297  163.7137 H   0  0  0  0  0  0  0  0  0  0  0  0
  133.9804  141.6273  162.1388 H   0  0  0  0  0  0  0  0  0  0  0  0
  134.6735  140.3761  163.0200 H   0  0  0  0  0  0  0  0  0  0  0  0
  131.6617  141.6165  161.4704 H   0  0  0  0  0  0  0  0  0  0  0  0
  129.5051  140.4360  161.4835 H   0  0  0  0  0  0  0  0  0  0  0  0
  129.4284  133.0765  154.2298 H   0  0  0  0  0  0  0  0  0  0  0  0
  129.9294  131.8554  152.1537 H   0  0  0  0  0  0  0  0  0  0  0  0
  1  2  1  0
  1 34  1  0
  1 35  1  0
  1 36  1  0
  2  3  1  0
  2 37  1  0
  2 38  1  0
  3 33  2  0
  3  4  1  0
  4  5  2  0
  4 39  1  0
  5  6  1  0
  5 40  1  0
  6  7  1  0
  6 32  2  0
  7 30  1  0
  7  8  2  0
  8  9  1  0
  8 41  1  0
  9 10  1  0
  9 11  1  0
 11 12  1  0
 11 30  2  0
 12 13  1  0
 12 42  1  0
 13 14  1  6
 13 15  1  0
 13 16  1  0
 15 43  1  0
 15 44  1  0
 15 45  1  0
 16 17  1  0
 16 46  1  0
 16 47  1  0
 17 22  1  0
 17 18  2  0
 18 19  1  0
 18 48  1  0
 19 20  2  0
 19 49  1  0
 20 21  1  0
 20 50  1  0
 21 22  2  0
 21 51  1  0
 22 23  1  0
 23 29  1  0
 23 24  2  0
 24 25  1  0
 24 52  1  0
 25 26  2  0
 25 53  1  0
 26 27  1  0
 26 28  1  0
 27 54  1  0
 27 55  1  0
 28 29  2  0
 28 56  1  0
 29 57  1  0
 30 31  1  0
 32 33  1  0
 32 58  1  0
 33 59  1  0
M  CHG  1  30   1
M  END
>  <DOCK_score>  (1) 
-59.385571

>  <SMILES>  (1) 
CCc1ccc(-c2c[nH]c(N[C@@H](C)Cc3ccccc3-c3ccc(N)cc3)[nH+]2)cc1

$$$$
