FC1(F)C[C@H]1CNc1cc(Nc2ccc(Cl)cc2)c(Cl)c(Nc2[nH]c3ccccc3[nH+]2)c1
     RDKit          3D

 52 56  0  0  1  0  0  0  0  0999 V2000
  125.5193  131.3253  160.0302 F   0  0  0  0  0  0  0  0  0  0  0  0
  124.4803  132.0340  160.6429 C   0  0  0  0  0  0  0  0  0  0  0  0
  123.1877  131.6673  160.2530 F   0  0  0  0  0  0  0  0  0  0  0  0
  124.6830  132.4704  162.0951 C   0  0  0  0  0  0  0  0  0  0  0  0
  124.7277  133.5076  160.9713 C   0  0  1  0  0  0  0  0  0  0  0  0
  123.8835  134.1915  160.8837 H   0  0  0  0  0  0  0  0  0  0  0  0
  126.0927  134.0936  160.6047 C   0  0  0  0  0  0  0  0  0  0  0  0
  126.3291  135.3086  161.3883 N   0  0  0  0  0  0  0  0  0  0  0  0
  127.5177  136.0247  161.2255 C   0  0  0  0  0  0  0  0  0  0  0  0
  127.7390  137.1795  161.9641 C   0  0  0  0  0  0  0  0  0  0  0  0
  128.9221  137.8884  161.8060 C   0  0  0  0  0  0  0  0  0  0  0  0
  129.1473  139.0479  162.5533 N   0  0  0  0  0  0  0  0  0  0  0  0
  128.5826  139.1804  163.8250 C   0  0  0  0  0  0  0  0  0  0  0  0
  127.7112  140.2284  164.0938 C   0  0  0  0  0  0  0  0  0  0  0  0
  127.1507  140.3538  165.3497 C   0  0  0  0  0  0  0  0  0  0  0  0
  127.4648  139.4430  166.3431 C   0  0  0  0  0  0  0  0  0  0  0  0
  126.7642  139.6081  167.9229 Cl  0  0  0  0  0  0  0  0  0  0  0  0
  128.3364  138.4010  166.0796 C   0  0  0  0  0  0  0  0  0  0  0  0
  128.8960  138.2675  164.8241 C   0  0  0  0  0  0  0  0  0  0  0  0
  129.8799  137.4482  160.9010 C   0  0  0  0  0  0  0  0  0  0  0  0
  131.3568  138.3377  160.6986 Cl  0  0  0  0  0  0  0  0  0  0  0  0
  129.6557  136.2963  160.1590 C   0  0  0  0  0  0  0  0  0  0  0  0
  130.6203  135.8524  159.2479 N   0  0  0  0  0  0  0  0  0  0  0  0
  130.7465  134.5084  158.9797 C   0  0  0  0  0  0  0  0  0  0  0  0
  131.1516  133.9971  157.8193 N   0  0  0  0  0  0  0  0  0  0  0  0
  131.4037  134.5057  157.0326 H   0  0  0  0  0  0  0  0  0  0  0  0
  131.1554  132.6313  157.9250 C   0  0  0  0  0  0  0  0  0  0  0  0
  131.4800  131.5986  157.0501 C   0  0  0  0  0  0  0  0  0  0  0  0
  131.3699  130.2891  157.4653 C   0  0  0  0  0  0  0  0  0  0  0  0
  130.9376  129.9923  158.7496 C   0  0  0  0  0  0  0  0  0  0  0  0
  130.6117  131.0027  159.6283 C   0  0  0  0  0  0  0  0  0  0  0  0
  130.7171  132.3308  159.2252 C   0  0  0  0  0  0  0  0  0  0  0  0
  130.4758  133.5303  159.8413 N   0  0  0  0  0  0  0  0  0  0  0  0
  130.1611  133.6471  160.7514 H   0  0  0  0  0  0  0  0  0  0  0  0
  128.4746  135.5847  160.3213 C   0  0  0  0  0  0  0  0  0  0  0  0
  123.8093  132.4719  162.7469 H   0  0  0  0  0  0  0  0  0  0  0  0
  125.6260  132.2055  162.5734 H   0  0  0  0  0  0  0  0  0  0  0  0
  126.8720  133.3634  160.8227 H   0  0  0  0  0  0  0  0  0  0  0  0
  126.1100  134.3372  159.5423 H   0  0  0  0  0  0  0  0  0  0  0  0
  125.6603  135.6160  162.0200 H   0  0  0  0  0  0  0  0  0  0  0  0
  126.9925  137.5238  162.6645 H   0  0  0  0  0  0  0  0  0  0  0  0
  129.6954  139.7607  162.1894 H   0  0  0  0  0  0  0  0  0  0  0  0
  127.4693  140.9421  163.3201 H   0  0  0  0  0  0  0  0  0  0  0  0
  126.4702  141.1660  165.5580 H   0  0  0  0  0  0  0  0  0  0  0  0
  128.5798  137.6916  166.8569 H   0  0  0  0  0  0  0  0  0  0  0  0
  129.5763  137.4541  164.6192 H   0  0  0  0  0  0  0  0  0  0  0  0
  131.2000  136.4918  158.8053 H   0  0  0  0  0  0  0  0  0  0  0  0
  131.8173  131.8227  156.0489 H   0  0  0  0  0  0  0  0  0  0  0  0
  131.6225  129.4883  156.7861 H   0  0  0  0  0  0  0  0  0  0  0  0
  130.8555  128.9621  159.0630 H   0  0  0  0  0  0  0  0  0  0  0  0
  130.2752  130.7647  160.6265 H   0  0  0  0  0  0  0  0  0  0  0  0
  128.3003  134.6889  159.7439 H   0  0  0  0  0  0  0  0  0  0  0  0
  1  2  1  0
  2  5  1  0
  2  3  1  0
  2  4  1  0
  4  5  1  0
  4 36  1  0
  4 37  1  0
  5  6  1  1
  5  7  1  0
  7  8  1  0
  7 38  1  0
  7 39  1  0
  8  9  1  0
  8 40  1  0
  9 35  1  0
  9 10  2  0
 10 11  1  0
 10 41  1  0
 11 12  1  0
 11 20  2  0
 12 13  1  0
 12 42  1  0
 13 19  1  0
 13 14  2  0
 14 15  1  0
 14 43  1  0
 15 16  2  0
 15 44  1  0
 16 17  1  0
 16 18  1  0
 18 19  2  0
 18 45  1  0
 19 46  1  0
 20 21  1  0
 20 22  1  0
 22 23  1  0
 22 35  2  0
 23 24  1  0
 23 47  1  0
 24 33  1  0
 24 25  2  0
 25 26  1  0
 25 27  1  0
 27 32  2  0
 27 28  1  0
 28 29  2  0
 28 48  1  0
 29 30  1  0
 29 49  1  0
 30 31  2  0
 30 50  1  0
 31 32  1  0
 31 51  1  0
 32 33  1  0
 33 34  1  0
 35 52  1  0
M  CHG  1  25   1
M  END
>  <DOCK_score>  (1) 
-49.392128

>  <SMILES>  (1) 
FC1(F)C[C@H]1CNc1cc(Nc2ccc(Cl)cc2)c(Cl)c(Nc2[nH]c3ccccc3[nH+]2)c1

$$$$
