O[C@@H]1[C@@H](O)[C@H](O)[C@@H](N2CC[NH+]([C@H](c3ccccc3)c3ccccc3-c3ccccc3)CC2)[C@@H](O)[C@H]1O
     RDKit          3D

 71 75  0  0  1  0  0  0  0  0999 V2000
  136.0374  140.1676  162.5711 O   0  0  0  0  0  0  0  0  0  0  0  0
  134.9517  139.3017  162.2339 C   0  0  2  0  0  0  0  0  0  0  0  0
  134.0397  139.8884  162.1238 H   0  0  0  0  0  0  0  0  0  0  0  0
  134.7613  138.2665  163.3443 C   0  0  1  0  0  0  0  0  0  0  0  0
  135.6731  137.6797  163.4543 H   0  0  0  0  0  0  0  0  0  0  0  0
  134.4733  138.9346  164.5742 O   0  0  0  0  0  0  0  0  0  0  0  0
  133.5988  137.3395  162.9833 C   0  0  2  0  0  0  0  0  0  0  0  0
  132.6868  137.9262  162.8732 H   0  0  0  0  0  0  0  0  0  0  0  0
  133.4208  136.3726  164.0204 O   0  0  0  0  0  0  0  0  0  0  0  0
  133.9070  136.6241  161.6665 C   0  0  1  0  0  0  0  0  0  0  0  0
  134.8190  136.0373  161.7765 H   0  0  0  0  0  0  0  0  0  0  0  0
  132.7908  135.7340  161.3199 N   0  0  0  0  0  0  0  0  0  0  0  0
  133.2371  134.6507  160.4326 C   0  0  0  0  0  0  0  0  0  0  0  0
  132.0614  133.7146  160.1441 C   0  0  0  0  0  0  0  0  0  0  0  0
  130.9752  134.4735  159.5105 N   0  0  0  0  0  0  0  0  0  0  0  0
  131.3089  134.8846  158.6516 H   0  0  0  0  0  0  0  0  0  0  0  0
  129.8538  133.5711  159.2174 C   0  0  2  0  0  0  0  0  0  0  0  0
  129.4934  133.1262  160.1450 H   0  0  0  0  0  0  0  0  0  0  0  0
  130.3165  132.4816  158.2844 C   0  0  0  0  0  0  0  0  0  0  0  0
  130.2235  132.6576  156.9165 C   0  0  0  0  0  0  0  0  0  0  0  0
  130.6527  131.6603  156.0607 C   0  0  0  0  0  0  0  0  0  0  0  0
  131.1647  130.4829  156.5730 C   0  0  0  0  0  0  0  0  0  0  0  0
  131.2524  130.3048  157.9410 C   0  0  0  0  0  0  0  0  0  0  0  0
  130.8284  131.3042  158.7967 C   0  0  0  0  0  0  0  0  0  0  0  0
  128.7392  134.3495  158.5672 C   0  0  0  0  0  0  0  0  0  0  0  0
  129.0281  135.4547  157.7923 C   0  0  0  0  0  0  0  0  0  0  0  0
  128.0065  136.1662  157.1901 C   0  0  0  0  0  0  0  0  0  0  0  0
  126.6897  135.7825  157.3703 C   0  0  0  0  0  0  0  0  0  0  0  0
  126.3891  134.6827  158.1476 C   0  0  0  0  0  0  0  0  0  0  0  0
  127.4148  133.9583  158.7518 C   0  0  0  0  0  0  0  0  0  0  0  0
  127.0977  132.7749  159.5891 C   0  0  0  0  0  0  0  0  0  0  0  0
  127.0162  131.5102  159.0100 C   0  0  0  0  0  0  0  0  0  0  0  0
  126.7270  130.4122  159.7946 C   0  0  0  0  0  0  0  0  0  0  0  0
  126.5061  130.5672  161.1512 C   0  0  0  0  0  0  0  0  0  0  0  0
  126.5801  131.8212  161.7303 C   0  0  0  0  0  0  0  0  0  0  0  0
  126.8747  132.9253  160.9562 C   0  0  0  0  0  0  0  0  0  0  0  0
  130.5235  135.5362  160.4185 C   0  0  0  0  0  0  0  0  0  0  0  0
  131.6865  136.4874  160.7091 C   0  0  0  0  0  0  0  0  0  0  0  0
  134.0974  137.6593  160.5561 C   0  0  1  0  0  0  0  0  0  0  0  0
  134.3171  137.1497  159.6180 H   0  0  0  0  0  0  0  0  0  0  0  0
  132.9018  138.4285  160.4117 O   0  0  0  0  0  0  0  0  0  0  0  0
  135.2599  138.5863  160.9171 C   0  0  1  0  0  0  0  0  0  0  0  0
  136.1719  137.9995  161.0271 H   0  0  0  0  0  0  0  0  0  0  0  0
  135.4379  139.5532  159.8800 O   0  0  0  0  0  0  0  0  0  0  0  0
  135.9100  140.6548  163.3967 H   0  0  0  0  0  0  0  0  0  0  0  0
  134.3402  138.3384  165.3239 H   0  0  0  0  0  0  0  0  0  0  0  0
  132.6989  135.7502  163.8582 H   0  0  0  0  0  0  0  0  0  0  0  0
  133.6030  135.0741  159.4972 H   0  0  0  0  0  0  0  0  0  0  0  0
  134.0376  134.0908  160.9163 H   0  0  0  0  0  0  0  0  0  0  0  0
  131.7047  133.2808  161.0784 H   0  0  0  0  0  0  0  0  0  0  0  0
  132.3867  132.9183  159.4747 H   0  0  0  0  0  0  0  0  0  0  0  0
  129.8194  133.5757  156.5164 H   0  0  0  0  0  0  0  0  0  0  0  0
  130.5845  131.7997  154.9919 H   0  0  0  0  0  0  0  0  0  0  0  0
  131.4966  129.7024  155.9045 H   0  0  0  0  0  0  0  0  0  0  0  0
  131.6523  129.3849  158.3412 H   0  0  0  0  0  0  0  0  0  0  0  0
  130.8969  131.1650  159.8656 H   0  0  0  0  0  0  0  0  0  0  0  0
  130.0542  135.7614  157.6522 H   0  0  0  0  0  0  0  0  0  0  0  0
  128.2374  137.0275  156.5807 H   0  0  0  0  0  0  0  0  0  0  0  0
  125.8955  136.3446  156.9015 H   0  0  0  0  0  0  0  0  0  0  0  0
  125.3607  134.3835  158.2871 H   0  0  0  0  0  0  0  0  0  0  0  0
  127.1836  131.3887  157.9500 H   0  0  0  0  0  0  0  0  0  0  0  0
  126.6686  129.4307  159.3477 H   0  0  0  0  0  0  0  0  0  0  0  0
  126.2753  129.7059  161.7606 H   0  0  0  0  0  0  0  0  0  0  0  0
  126.4075  131.9365  162.7902 H   0  0  0  0  0  0  0  0  0  0  0  0
  126.9319  133.9039  161.4093 H   0  0  0  0  0  0  0  0  0  0  0  0
  130.1747  135.0931  161.3512 H   0  0  0  0  0  0  0  0  0  0  0  0
  129.7088  136.0903  159.9523 H   0  0  0  0  0  0  0  0  0  0  0  0
  131.3556  137.2676  161.3947 H   0  0  0  0  0  0  0  0  0  0  0  0
  132.0268  136.9411  159.7783 H   0  0  0  0  0  0  0  0  0  0  0  0
  132.6452  138.9102  161.2101 H   0  0  0  0  0  0  0  0  0  0  0  0
  135.6367  139.1700  159.0149 H   0  0  0  0  0  0  0  0  0  0  0  0
  1  2  1  0
  1 45  1  0
  2  3  1  6
  2 42  1  0
  2  4  1  0
  4  5  1  1
  4  6  1  0
  4  7  1  0
  6 46  1  0
  7  8  1  6
  7  9  1  0
  7 10  1  0
  9 47  1  0
 10 11  1  1
 10 12  1  0
 10 39  1  0
 12 38  1  0
 12 13  1  0
 13 14  1  0
 13 48  1  0
 13 49  1  0
 14 15  1  0
 14 50  1  0
 14 51  1  0
 15 16  1  0
 15 17  1  0
 15 37  1  0
 17 18  1  1
 17 19  1  0
 17 25  1  0
 19 24  1  0
 19 20  2  0
 20 21  1  0
 20 52  1  0
 21 22  2  0
 21 53  1  0
 22 23  1  0
 22 54  1  0
 23 24  2  0
 23 55  1  0
 24 56  1  0
 25 30  1  0
 25 26  2  0
 26 27  1  0
 26 57  1  0
 27 28  2  0
 27 58  1  0
 28 29  1  0
 28 59  1  0
 29 30  2  0
 29 60  1  0
 30 31  1  0
 31 36  1  0
 31 32  2  0
 32 33  1  0
 32 61  1  0
 33 34  2  0
 33 62  1  0
 34 35  1  0
 34 63  1  0
 35 36  2  0
 35 64  1  0
 36 65  1  0
 37 38  1  0
 37 66  1  0
 37 67  1  0
 38 68  1  0
 38 69  1  0
 39 40  1  6
 39 41  1  0
 39 42  1  0
 41 70  1  0
 42 43  1  1
 42 44  1  0
 44 71  1  0
M  CHG  1  15   1
M  END
>  <DOCK_score>  (1) 
-57.15744

>  <SMILES>  (1) 
O[C@@H]1[C@@H](O)[C@H](O)[C@@H](N2CC[NH+]([C@H](c3ccccc3)c3ccccc3-c3ccccc3)CC2)[C@@H](O)[C@H]1O

$$$$
