Ic1ccccc1-c1c[nH]c(NC(c2ccccc2)c2ccccc2)[nH+]1
     RDKit          3D

 45 48  0  0  1  0  0  0  0  0999 V2000
  131.4617  130.0118  157.7106 I   0  0  0  0  0  0  0  0  0  0  0  0
  130.9384  130.7066  155.8048 C   0  0  0  0  0  0  0  0  0  0  0  0
  131.2372  129.9525  154.6872 C   0  0  0  0  0  0  0  0  0  0  0  0
  130.8975  130.4127  153.4284 C   0  0  0  0  0  0  0  0  0  0  0  0
  130.2517  131.6277  153.2810 C   0  0  0  0  0  0  0  0  0  0  0  0
  129.9426  132.3870  154.3908 C   0  0  0  0  0  0  0  0  0  0  0  0
  130.2824  131.9285  155.6625 C   0  0  0  0  0  0  0  0  0  0  0  0
  129.9526  132.7402  156.8594 C   0  0  0  0  0  0  0  0  0  0  0  0
  129.1651  132.3537  157.8935 C   0  0  0  0  0  0  0  0  0  0  0  0
  129.1277  133.4026  158.7799 N   0  0  0  0  0  0  0  0  0  0  0  0
  128.6471  133.4262  159.6221 H   0  0  0  0  0  0  0  0  0  0  0  0
  129.8943  134.4002  158.2609 C   0  0  0  0  0  0  0  0  0  0  0  0
  130.1184  135.6337  158.8484 N   0  0  0  0  0  0  0  0  0  0  0  0
  129.5048  135.9520  160.1401 C   0  0  0  0  0  0  0  0  0  0  0  0
  129.9751  134.9642  161.1765 C   0  0  0  0  0  0  0  0  0  0  0  0
  129.1563  134.6369  162.2412 C   0  0  0  0  0  0  0  0  0  0  0  0
  129.5859  133.7271  163.1892 C   0  0  0  0  0  0  0  0  0  0  0  0
  130.8382  133.1524  163.0782 C   0  0  0  0  0  0  0  0  0  0  0  0
  131.6590  133.4837  162.0164 C   0  0  0  0  0  0  0  0  0  0  0  0
  131.2274  134.3896  161.0655 C   0  0  0  0  0  0  0  0  0  0  0  0
  129.9034  137.3445  160.5559 C   0  0  0  0  0  0  0  0  0  0  0  0
  130.0025  137.6636  161.8973 C   0  0  0  0  0  0  0  0  0  0  0  0
  130.3728  138.9396  162.2787 C   0  0  0  0  0  0  0  0  0  0  0  0
  130.6345  139.8996  161.3182 C   0  0  0  0  0  0  0  0  0  0  0  0
  130.5297  139.5820  159.9775 C   0  0  0  0  0  0  0  0  0  0  0  0
  130.1645  138.3044  159.5961 C   0  0  0  0  0  0  0  0  0  0  0  0
  130.3855  134.0007  157.1134 N   0  0  0  0  0  0  0  0  0  0  0  0
  130.9657  134.5228  156.5376 H   0  0  0  0  0  0  0  0  0  0  0  0
  131.7411  129.0035  154.7963 H   0  0  0  0  0  0  0  0  0  0  0  0
  131.1369  129.8213  152.5570 H   0  0  0  0  0  0  0  0  0  0  0  0
  129.9887  131.9821  152.2953 H   0  0  0  0  0  0  0  0  0  0  0  0
  129.4384  133.3350  154.2744 H   0  0  0  0  0  0  0  0  0  0  0  0
  128.6635  131.4032  157.9999 H   0  0  0  0  0  0  0  0  0  0  0  0
  130.6814  136.2870  158.4047 H   0  0  0  0  0  0  0  0  0  0  0  0
  128.4199  135.8960  160.0507 H   0  0  0  0  0  0  0  0  0  0  0  0
  128.1797  135.0892  162.3303 H   0  0  0  0  0  0  0  0  0  0  0  0
  128.9448  133.4686  164.0189 H   0  0  0  0  0  0  0  0  0  0  0  0
  131.1756  132.4450  163.8212 H   0  0  0  0  0  0  0  0  0  0  0  0
  132.6375  133.0349  161.9299 H   0  0  0  0  0  0  0  0  0  0  0  0
  131.8689  134.6485  160.2362 H   0  0  0  0  0  0  0  0  0  0  0  0
  129.7942  136.9149  162.6473 H   0  0  0  0  0  0  0  0  0  0  0  0
  130.4538  139.1880  163.3267 H   0  0  0  0  0  0  0  0  0  0  0  0
  130.9188  140.8978  161.6168 H   0  0  0  0  0  0  0  0  0  0  0  0
  130.7333  140.3319  159.2277 H   0  0  0  0  0  0  0  0  0  0  0  0
  130.0827  138.0564  158.5482 H   0  0  0  0  0  0  0  0  0  0  0  0
  1  2  1  0
  2  7  2  0
  2  3  1  0
  3  4  2  0
  3 29  1  0
  4  5  1  0
  4 30  1  0
  5  6  2  0
  5 31  1  0
  6  7  1  0
  6 32  1  0
  7  8  1  0
  8 27  1  0
  8  9  2  0
  9 10  1  0
  9 33  1  0
 10 11  1  0
 10 12  1  0
 12 13  1  0
 12 27  2  0
 13 14  1  0
 13 34  1  0
 14 15  1  0
 14 21  1  0
 14 35  1  0
 15 20  1  0
 15 16  2  0
 16 17  1  0
 16 36  1  0
 17 18  2  0
 17 37  1  0
 18 19  1  0
 18 38  1  0
 19 20  2  0
 19 39  1  0
 20 40  1  0
 21 26  1  0
 21 22  2  0
 22 23  1  0
 22 41  1  0
 23 24  2  0
 23 42  1  0
 24 25  1  0
 24 43  1  0
 25 26  2  0
 25 44  1  0
 26 45  1  0
 27 28  1  0
M  CHG  1  27   1
M  END
>  <DOCK_score>  (1) 
-59.516121

>  <SMILES>  (1) 
Ic1ccccc1-c1c[nH]c(NC(c2ccccc2)c2ccccc2)[nH+]1

$$$$
