COc1cccc(Nc2ccc(Nc3[nH]cc(-c4ccc(O)cc4)[nH+]3)cc2)c1
     RDKit          3D

 49 52  0  0  1  0  0  0  0  0999 V2000
  128.5831  136.9841  167.1858 C   0  0  0  0  0  0  0  0  0  0  0  0
  128.4838  138.3928  166.9675 O   0  0  0  0  0  0  0  0  0  0  0  0
  127.9558  138.7976  165.7824 C   0  0  0  0  0  0  0  0  0  0  0  0
  127.8249  140.1519  165.5069 C   0  0  0  0  0  0  0  0  0  0  0  0
  127.2883  140.5654  164.3027 C   0  0  0  0  0  0  0  0  0  0  0  0
  126.8799  139.6328  163.3687 C   0  0  0  0  0  0  0  0  0  0  0  0
  127.0084  138.2759  163.6389 C   0  0  0  0  0  0  0  0  0  0  0  0
  126.5956  137.3327  162.6949 N   0  0  0  0  0  0  0  0  0  0  0  0
  127.4969  136.8672  161.7303 C   0  0  0  0  0  0  0  0  0  0  0  0
  127.0864  135.9295  160.7914 C   0  0  0  0  0  0  0  0  0  0  0  0
  127.9753  135.4708  159.8398 C   0  0  0  0  0  0  0  0  0  0  0  0
  129.2797  135.9472  159.8211 C   0  0  0  0  0  0  0  0  0  0  0  0
  130.1811  135.4822  158.8555 N   0  0  0  0  0  0  0  0  0  0  0  0
  130.0532  134.1993  158.3496 C   0  0  0  0  0  0  0  0  0  0  0  0
  129.5537  133.1274  159.0235 N   0  0  0  0  0  0  0  0  0  0  0  0
  129.2260  133.1243  159.9364 H   0  0  0  0  0  0  0  0  0  0  0  0
  129.6002  132.0501  158.1716 C   0  0  0  0  0  0  0  0  0  0  0  0
  130.1261  132.4946  157.0034 C   0  0  0  0  0  0  0  0  0  0  0  0
  130.3660  131.6789  155.7876 C   0  0  0  0  0  0  0  0  0  0  0  0
  129.7385  132.0117  154.5883 C   0  0  0  0  0  0  0  0  0  0  0  0
  129.9638  131.2518  153.4595 C   0  0  0  0  0  0  0  0  0  0  0  0
  130.8105  130.1533  153.5184 C   0  0  0  0  0  0  0  0  0  0  0  0
  131.0264  129.4033  152.4057 O   0  0  0  0  0  0  0  0  0  0  0  0
  131.4409  129.8223  154.7099 C   0  0  0  0  0  0  0  0  0  0  0  0
  131.2197  130.5785  155.8421 C   0  0  0  0  0  0  0  0  0  0  0  0
  130.3995  133.8154  157.1448 N   0  0  0  0  0  0  0  0  0  0  0  0
  130.7867  134.3858  156.4624 H   0  0  0  0  0  0  0  0  0  0  0  0
  129.6918  136.8805  160.7634 C   0  0  0  0  0  0  0  0  0  0  0  0
  128.8016  137.3433  161.7118 C   0  0  0  0  0  0  0  0  0  0  0  0
  127.5427  137.8588  164.8508 C   0  0  0  0  0  0  0  0  0  0  0  0
  129.0202  136.7984  168.1671 H   0  0  0  0  0  0  0  0  0  0  0  0
  127.5895  136.5384  167.1405 H   0  0  0  0  0  0  0  0  0  0  0  0
  129.2156  136.5408  166.4167 H   0  0  0  0  0  0  0  0  0  0  0  0
  128.1432  140.8835  166.2349 H   0  0  0  0  0  0  0  0  0  0  0  0
  127.1877  141.6196  164.0910 H   0  0  0  0  0  0  0  0  0  0  0  0
  126.4602  139.9587  162.4285 H   0  0  0  0  0  0  0  0  0  0  0  0
  125.6845  137.0002  162.7078 H   0  0  0  0  0  0  0  0  0  0  0  0
  126.0720  135.5591  160.8059 H   0  0  0  0  0  0  0  0  0  0  0  0
  127.6561  134.7418  159.1097 H   0  0  0  0  0  0  0  0  0  0  0  0
  130.8950  136.0586  158.5410 H   0  0  0  0  0  0  0  0  0  0  0  0
  129.2792  131.0424  158.3906 H   0  0  0  0  0  0  0  0  0  0  0  0
  129.0762  132.8637  154.5430 H   0  0  0  0  0  0  0  0  0  0  0  0
  129.4776  131.5089  152.5301 H   0  0  0  0  0  0  0  0  0  0  0  0
  130.5480  129.7124  151.6242 H   0  0  0  0  0  0  0  0  0  0  0  0
  132.1023  128.9696  154.7516 H   0  0  0  0  0  0  0  0  0  0  0  0
  131.7075  130.3183  156.7697 H   0  0  0  0  0  0  0  0  0  0  0  0
  130.7075  137.2474  160.7516 H   0  0  0  0  0  0  0  0  0  0  0  0
  129.1208  138.0723  162.4419 H   0  0  0  0  0  0  0  0  0  0  0  0
  127.6396  136.8048  165.0652 H   0  0  0  0  0  0  0  0  0  0  0  0
  1  2  1  0
  1 31  1  0
  1 32  1  0
  1 33  1  0
  2  3  1  0
  3 30  2  0
  3  4  1  0
  4  5  2  0
  4 34  1  0
  5  6  1  0
  5 35  1  0
  6  7  2  0
  6 36  1  0
  7  8  1  0
  7 30  1  0
  8  9  1  0
  8 37  1  0
  9 29  1  0
  9 10  2  0
 10 11  1  0
 10 38  1  0
 11 12  2  0
 11 39  1  0
 12 13  1  0
 12 28  1  0
 13 40  1  0
 14 13  1  0
 14 26  2  0
 14 15  1  0
 15 16  1  0
 15 17  1  0
 17 18  2  0
 17 41  1  0
 18 19  1  0
 18 26  1  0
 19 25  1  0
 19 20  2  0
 20 21  1  0
 20 42  1  0
 21 22  2  0
 21 43  1  0
 22 23  1  0
 22 24  1  0
 23 44  1  0
 24 25  2  0
 24 45  1  0
 25 46  1  0
 26 27  1  0
 28 29  2  0
 28 47  1  0
 29 48  1  0
 30 49  1  0
M  CHG  1  26   1
M  END
>  <DOCK_score>  (1) 
-49.592548

>  <SMILES>  (1) 
COc1cccc(Nc2ccc(Nc3[nH]cc(-c4ccc(O)cc4)[nH+]3)cc2)c1

$$$$
