Cn1nccc1C([NH+]=C(NC1CC=CC1)N[C@H]1C[C@@H](O)C1)c1ccnn1C
     RDKit          3D

 55 58  0  0  1  0  0  0  0  0999 V2000
  131.5218  135.0530  163.9194 C   0  0  0  0  0  0  0  0  0  0  0  0
  132.4693  135.5913  162.9403 N   0  0  0  0  0  0  0  0  0  0  0  0
  133.8639  135.6142  163.0695 N   0  0  0  0  0  0  0  0  0  0  0  0
  134.3643  136.1754  161.9987 C   0  0  0  0  0  0  0  0  0  0  0  0
  133.3064  136.5226  161.1523 C   0  0  0  0  0  0  0  0  0  0  0  0
  132.1528  136.1498  161.7533 C   0  0  0  0  0  0  0  0  0  0  0  0
  130.7633  136.3317  161.1993 C   0  0  0  0  0  0  0  0  0  0  0  0
  130.6455  135.6102  159.9296 N   0  0  0  0  0  0  0  0  0  0  0  0
  131.4246  135.4943  159.3635 H   0  0  0  0  0  0  0  0  0  0  0  0
  129.4938  135.1240  159.5608 C   0  0  0  0  0  0  0  0  0  0  0  0
  129.3832  134.4468  158.3694 N   0  0  0  0  0  0  0  0  0  0  0  0
  130.5290  133.7027  157.8406 C   0  0  0  0  0  0  0  0  0  0  0  0
  130.1243  132.8638  156.6063 C   0  0  0  0  0  0  0  0  0  0  0  0
  130.9154  131.5830  156.7363 C   0  0  0  0  0  0  0  0  0  0  0  0
  131.3807  131.4387  157.9472 C   0  0  0  0  0  0  0  0  0  0  0  0
  130.9775  132.5993  158.8268 C   0  0  0  0  0  0  0  0  0  0  0  0
  128.3895  135.2882  160.3632 N   0  0  0  0  0  0  0  0  0  0  0  0
  127.3243  134.2823  160.3582 C   0  0  1  0  0  0  0  0  0  0  0  0
  127.6893  133.2789  160.1391 H   0  0  0  0  0  0  0  0  0  0  0  0
  126.4059  134.3487  161.5920 C   0  0  0  0  0  0  0  0  0  0  0  0
  125.2325  134.0744  160.6367 C   0  0  1  0  0  0  0  0  0  0  0  0
  125.0233  133.0144  160.4930 H   0  0  0  0  0  0  0  0  0  0  0  0
  124.0607  134.8357  160.9358 O   0  0  0  0  0  0  0  0  0  0  0  0
  126.0981  134.6878  159.5234 C   0  0  0  0  0  0  0  0  0  0  0  0
  130.5019  137.7980  160.9697 C   0  0  0  0  0  0  0  0  0  0  0  0
  130.7569  138.4854  159.8325 C   0  0  0  0  0  0  0  0  0  0  0  0
  130.3685  139.8136  160.0360 C   0  0  0  0  0  0  0  0  0  0  0  0
  129.8971  139.9198  161.2519 N   0  0  0  0  0  0  0  0  0  0  0  0
  129.9662  138.6595  161.8597 N   0  0  0  0  0  0  0  0  0  0  0  0
  129.5358  138.3348  163.2218 C   0  0  0  0  0  0  0  0  0  0  0  0
  131.2593  134.0308  163.6471 H   0  0  0  0  0  0  0  0  0  0  0  0
  131.9789  135.0592  164.9089 H   0  0  0  0  0  0  0  0  0  0  0  0
  130.6223  135.6684  163.9310 H   0  0  0  0  0  0  0  0  0  0  0  0
  135.4133  136.3413  161.8021 H   0  0  0  0  0  0  0  0  0  0  0  0
  133.3946  137.0029  160.1890 H   0  0  0  0  0  0  0  0  0  0  0  0
  130.0348  135.9396  161.9089 H   0  0  0  0  0  0  0  0  0  0  0  0
  128.5465  134.4617  157.8789 H   0  0  0  0  0  0  0  0  0  0  0  0
  131.3539  134.3749  157.6042 H   0  0  0  0  0  0  0  0  0  0  0  0
  129.0551  132.6531  156.6244 H   0  0  0  0  0  0  0  0  0  0  0  0
  130.3939  133.3851  155.6878 H   0  0  0  0  0  0  0  0  0  0  0  0
  131.0753  130.8795  155.9326 H   0  0  0  0  0  0  0  0  0  0  0  0
  131.9755  130.6000  158.2773 H   0  0  0  0  0  0  0  0  0  0  0  0
  131.8271  132.9409  159.4180 H   0  0  0  0  0  0  0  0  0  0  0  0
  130.1512  132.3132  159.4777 H   0  0  0  0  0  0  0  0  0  0  0  0
  128.3156  136.0699  160.9325 H   0  0  0  0  0  0  0  0  0  0  0  0
  126.3702  135.3347  162.0556 H   0  0  0  0  0  0  0  0  0  0  0  0
  126.5802  133.5480  162.3107 H   0  0  0  0  0  0  0  0  0  0  0  0
  124.2431  135.7376  161.2332 H   0  0  0  0  0  0  0  0  0  0  0  0
  126.0239  134.1609  158.5722 H   0  0  0  0  0  0  0  0  0  0  0  0
  125.9772  135.7662  159.4205 H   0  0  0  0  0  0  0  0  0  0  0  0
  131.1851  138.0802  158.9276 H   0  0  0  0  0  0  0  0  0  0  0  0
  130.4449  140.6135  159.3144 H   0  0  0  0  0  0  0  0  0  0  0  0
  130.3456  138.5486  163.9194 H   0  0  0  0  0  0  0  0  0  0  0  0
  128.6648  138.9367  163.4808 H   0  0  0  0  0  0  0  0  0  0  0  0
  129.2769  137.2775  163.2788 H   0  0  0  0  0  0  0  0  0  0  0  0
  1  2  1  0
  1 31  1  0
  1 32  1  0
  1 33  1  0
  2  6  1  0
  2  3  1  0
  3  4  2  0
  4  5  1  0
  4 34  1  0
  5  6  2  0
  5 35  1  0
  6  7  1  0
  7  8  1  0
  7 25  1  0
  7 36  1  0
  8  9  1  0
 10  8  2  0
 10 11  1  0
 10 17  1  0
 11 12  1  0
 11 37  1  0
 12 16  1  0
 12 13  1  0
 12 38  1  0
 13 14  1  0
 13 39  1  0
 13 40  1  0
 14 15  2  0
 14 41  1  0
 15 16  1  0
 15 42  1  0
 16 43  1  0
 16 44  1  0
 17 18  1  0
 17 45  1  0
 18 19  1  6
 18 24  1  0
 18 20  1  0
 20 21  1  0
 20 46  1  0
 20 47  1  0
 21 22  1  6
 21 23  1  0
 21 24  1  0
 23 48  1  0
 24 49  1  0
 24 50  1  0
 25 29  1  0
 25 26  2  0
 26 27  1  0
 26 51  1  0
 27 28  2  0
 27 52  1  0
 28 29  1  0
 29 30  1  0
 30 53  1  0
 30 54  1  0
 30 55  1  0
M  CHG  1   8   1
M  END
>  <DOCK_score>  (1) 
-45.721996

>  <SMILES>  (1) 
Cn1nccc1C([NH+]=C(NC1CC=CC1)N[C@H]1C[C@@H](O)C1)c1ccnn1C

$$$$
