CC1=CC[C@H](C[NH2+]Cc2c[nH]nc2-c2ccc(Nc3ccccc3F)o2)CC1
     RDKit          3D

 54 57  0  0  1  0  0  0  0  0999 V2000
  137.7391  139.8994  161.0495 C   0  0  0  0  0  0  0  0  0  0  0  0
  136.3841  139.2440  161.1237 C   0  0  0  0  0  0  0  0  0  0  0  0
  135.6854  139.1701  160.0366 C   0  0  0  0  0  0  0  0  0  0  0  0
  134.3181  138.5568  159.9560 C   0  0  0  0  0  0  0  0  0  0  0  0
  134.0603  137.6805  161.1837 C   0  0  2  0  0  0  0  0  0  0  0  0
  134.6802  136.7854  161.1316 H   0  0  0  0  0  0  0  0  0  0  0  0
  132.5839  137.2816  161.2300 C   0  0  0  0  0  0  0  0  0  0  0  0
  132.3493  136.1641  160.3058 N   0  0  0  0  0  0  0  0  0  0  0  0
  132.5922  136.4465  159.3681 H   0  0  0  0  0  0  0  0  0  0  0  0
  132.9190  135.3771  160.5783 H   0  0  0  0  0  0  0  0  0  0  0  0
  130.9317  135.7812  160.3503 C   0  0  0  0  0  0  0  0  0  0  0  0
  130.6911  134.6348  159.4024 C   0  0  0  0  0  0  0  0  0  0  0  0
  131.6205  134.0342  158.6286 C   0  0  0  0  0  0  0  0  0  0  0  0
  131.0106  133.0550  157.9261 N   0  0  0  0  0  0  0  0  0  0  0  0
  131.4383  132.4605  157.2900 H   0  0  0  0  0  0  0  0  0  0  0  0
  129.6542  133.0461  158.2751 N   0  0  0  0  0  0  0  0  0  0  0  0
  129.4558  133.9940  159.1699 C   0  0  0  0  0  0  0  0  0  0  0  0
  128.1679  134.3283  159.8122 C   0  0  0  0  0  0  0  0  0  0  0  0
  126.9813  133.7039  159.5893 C   0  0  0  0  0  0  0  0  0  0  0  0
  126.0256  134.3401  160.4052 C   0  0  0  0  0  0  0  0  0  0  0  0
  126.6740  135.3191  161.0847 C   0  0  0  0  0  0  0  0  0  0  0  0
  126.0973  136.1899  162.0020 N   0  0  0  0  0  0  0  0  0  0  0  0
  126.8594  136.6972  163.0591 C   0  0  0  0  0  0  0  0  0  0  0  0
  127.8985  135.9454  163.5915 C   0  0  0  0  0  0  0  0  0  0  0  0
  128.6528  136.4514  164.6323 C   0  0  0  0  0  0  0  0  0  0  0  0
  128.3677  137.7006  165.1525 C   0  0  0  0  0  0  0  0  0  0  0  0
  127.3306  138.4510  164.6293 C   0  0  0  0  0  0  0  0  0  0  0  0
  126.5747  137.9536  163.5838 C   0  0  0  0  0  0  0  0  0  0  0  0
  125.5618  138.6869  163.0723 F   0  0  0  0  0  0  0  0  0  0  0  0
  127.9692  135.3019  160.7253 O   0  0  0  0  0  0  0  0  0  0  0  0
  134.4160  138.4871  162.4389 C   0  0  0  0  0  0  0  0  0  0  0  0
  135.9286  138.7182  162.4534 C   0  0  0  0  0  0  0  0  0  0  0  0
  137.9283  140.2280  160.0277 H   0  0  0  0  0  0  0  0  0  0  0  0
  137.7637  140.7596  161.7185 H   0  0  0  0  0  0  0  0  0  0  0  0
  138.5053  139.1842  161.3490 H   0  0  0  0  0  0  0  0  0  0  0  0
  136.1131  139.5746  159.1311 H   0  0  0  0  0  0  0  0  0  0  0  0
  134.2483  137.9466  159.0555 H   0  0  0  0  0  0  0  0  0  0  0  0
  133.5694  139.3477  159.9129 H   0  0  0  0  0  0  0  0  0  0  0  0
  131.9685  138.1318  160.9356 H   0  0  0  0  0  0  0  0  0  0  0  0
  132.3215  136.9767  162.2430 H   0  0  0  0  0  0  0  0  0  0  0  0
  130.6694  135.4761  161.3634 H   0  0  0  0  0  0  0  0  0  0  0  0
  130.3164  136.6313  160.0560 H   0  0  0  0  0  0  0  0  0  0  0  0
  132.6682  134.2918  158.5800 H   0  0  0  0  0  0  0  0  0  0  0  0
  126.8050  132.8780  158.9161 H   0  0  0  0  0  0  0  0  0  0  0  0
  124.9762  134.0950  160.4768 H   0  0  0  0  0  0  0  0  0  0  0  0
  125.1663  136.4457  161.9089 H   0  0  0  0  0  0  0  0  0  0  0  0
  128.1193  134.9676  163.1896 H   0  0  0  0  0  0  0  0  0  0  0  0
  129.4641  135.8687  165.0432 H   0  0  0  0  0  0  0  0  0  0  0  0
  128.9567  138.0912  165.9691 H   0  0  0  0  0  0  0  0  0  0  0  0
  127.1106  139.4263  165.0381 H   0  0  0  0  0  0  0  0  0  0  0  0
  133.8994  139.4466  162.4165 H   0  0  0  0  0  0  0  0  0  0  0  0
  134.1219  137.9297  163.3282 H   0  0  0  0  0  0  0  0  0  0  0  0
  136.4358  137.7763  162.6624 H   0  0  0  0  0  0  0  0  0  0  0  0
  136.1766  139.4401  163.2315 H   0  0  0  0  0  0  0  0  0  0  0  0
  1  2  1  0
  1 33  1  0
  1 34  1  0
  1 35  1  0
  2 32  1  0
  2  3  2  0
  3  4  1  0
  3 36  1  0
  4  5  1  0
  4 37  1  0
  4 38  1  0
  5  6  1  6
  5  7  1  0
  5 31  1  0
  7  8  1  0
  7 39  1  0
  7 40  1  0
  8  9  1  0
  8 10  1  0
  8 11  1  0
 11 12  1  0
 11 41  1  0
 11 42  1  0
 12 17  1  0
 12 13  2  0
 13 14  1  0
 13 43  1  0
 14 15  1  0
 14 16  1  0
 16 17  2  0
 17 18  1  0
 18 30  1  0
 18 19  2  0
 19 20  1  0
 19 44  1  0
 20 21  2  0
 20 45  1  0
 21 22  1  0
 21 30  1  0
 22 23  1  0
 22 46  1  0
 23 28  1  0
 23 24  2  0
 24 25  1  0
 24 47  1  0
 25 26  2  0
 25 48  1  0
 26 27  1  0
 26 49  1  0
 27 28  2  0
 27 50  1  0
 28 29  1  0
 31 32  1  0
 31 51  1  0
 31 52  1  0
 32 53  1  0
 32 54  1  0
M  CHG  1   8   1
M  END
>  <DOCK_score>  (1) 
-47.972679

>  <SMILES>  (1) 
CC1=CC[C@H](C[NH2+]Cc2c[nH]nc2-c2ccc(Nc3ccccc3F)o2)CC1

$$$$
