CC1(C)C(C(Cc2ccc(C3=CCCC3)cc2)Nc2[nH]cc(-c3ccc(C(F)(F)F)cc3)[nH+]2)C[C@H]1O
     RDKit          3D

 69 73  0  0  1  0  0  0  0  0999 V2000
  125.7277  134.1857  159.9498 C   0  0  0  0  0  0  0  0  0  0  0  0
  125.4892  133.1228  161.0243 C   0  0  0  0  0  0  0  0  0  0  0  0
  125.1352  131.7541  160.4397 C   0  0  0  0  0  0  0  0  0  0  0  0
  126.5933  133.0692  162.0934 C   0  0  1  0  0  0  0  0  0  0  0  0
  127.9473  133.5858  161.6027 C   0  0  1  0  0  0  0  0  0  0  0  0
  128.8159  133.9616  162.8050 C   0  0  0  0  0  0  0  0  0  0  0  0
  129.9090  134.8994  162.3613 C   0  0  0  0  0  0  0  0  0  0  0  0
  129.6944  136.2659  162.3814 C   0  0  0  0  0  0  0  0  0  0  0  0
  130.6931  137.1301  161.9820 C   0  0  0  0  0  0  0  0  0  0  0  0
  131.9178  136.6225  161.5467 C   0  0  0  0  0  0  0  0  0  0  0  0
  132.9903  137.5422  161.1126 C   0  0  0  0  0  0  0  0  0  0  0  0
  134.1876  137.6135  161.6680 C   0  0  0  0  0  0  0  0  0  0  0  0
  135.0374  138.6571  160.9804 C   0  0  0  0  0  0  0  0  0  0  0  0
  134.0344  139.5191  160.1800 C   0  0  0  0  0  0  0  0  0  0  0  0
  132.8686  138.5233  159.9698 C   0  0  0  0  0  0  0  0  0  0  0  0
  132.1259  135.2428  161.5236 C   0  0  0  0  0  0  0  0  0  0  0  0
  131.1209  134.3897  161.9305 C   0  0  0  0  0  0  0  0  0  0  0  0
  128.6162  132.5399  160.8249 N   0  0  0  0  0  0  0  0  0  0  0  0
  128.9487  132.7680  159.5005 C   0  0  0  0  0  0  0  0  0  0  0  0
  128.7145  133.9178  158.8111 N   0  0  0  0  0  0  0  0  0  0  0  0
  128.2884  134.7180  159.1562 H   0  0  0  0  0  0  0  0  0  0  0  0
  129.1930  133.7361  157.5363 C   0  0  0  0  0  0  0  0  0  0  0  0
  129.7053  132.4817  157.4834 C   0  0  0  0  0  0  0  0  0  0  0  0
  130.3338  131.8447  156.3003 C   0  0  0  0  0  0  0  0  0  0  0  0
  130.8269  130.5439  156.3856 C   0  0  0  0  0  0  0  0  0  0  0  0
  131.4047  129.9538  155.2799 C   0  0  0  0  0  0  0  0  0  0  0  0
  131.5066  130.6553  154.0924 C   0  0  0  0  0  0  0  0  0  0  0  0
  132.1448  130.0078  152.8905 C   0  0  0  0  0  0  0  0  0  0  0  0
  132.5508  128.7108  153.2199 F   0  0  0  0  0  0  0  0  0  0  0  0
  131.2187  129.9550  151.8428 F   0  0  0  0  0  0  0  0  0  0  0  0
  133.2565  130.7580  152.4920 F   0  0  0  0  0  0  0  0  0  0  0  0
  131.0243  131.9491  154.0035 C   0  0  0  0  0  0  0  0  0  0  0  0
  130.4387  132.5468  155.1009 C   0  0  0  0  0  0  0  0  0  0  0  0
  129.5460  131.9142  158.7054 N   0  0  0  0  0  0  0  0  0  0  0  0
  129.8268  131.0187  158.9507 H   0  0  0  0  0  0  0  0  0  0  0  0
  125.7802  134.1161  162.8729 C   0  0  0  0  0  0  0  0  0  0  0  0
  124.5376  133.5800  162.1425 C   0  0  1  0  0  0  0  0  0  0  0  0
  124.0463  132.7578  162.6626 H   0  0  0  0  0  0  0  0  0  0  0  0
  123.6267  134.6033  161.7362 O   0  0  0  0  0  0  0  0  0  0  0  0
  126.5896  133.9039  159.3450 H   0  0  0  0  0  0  0  0  0  0  0  0
  124.8464  134.2627  159.3130 H   0  0  0  0  0  0  0  0  0  0  0  0
  125.9171  135.1477  160.4261 H   0  0  0  0  0  0  0  0  0  0  0  0
  124.7845  131.0983  161.2365 H   0  0  0  0  0  0  0  0  0  0  0  0
  124.3499  131.8701  159.6927 H   0  0  0  0  0  0  0  0  0  0  0  0
  126.0188  131.3186  159.9731 H   0  0  0  0  0  0  0  0  0  0  0  0
  126.6659  132.1068  162.6001 H   0  0  0  0  0  0  0  0  0  0  0  0
  127.7954  134.4641  160.9754 H   0  0  0  0  0  0  0  0  0  0  0  0
  128.2002  134.4520  163.5589 H   0  0  0  0  0  0  0  0  0  0  0  0
  129.2599  133.0605  163.2283 H   0  0  0  0  0  0  0  0  0  0  0  0
  128.7445  136.6574  162.7144 H   0  0  0  0  0  0  0  0  0  0  0  0
  130.5258  138.1967  162.0020 H   0  0  0  0  0  0  0  0  0  0  0  0
  134.5142  137.0085  162.5006 H   0  0  0  0  0  0  0  0  0  0  0  0
  135.5587  139.2677  161.7177 H   0  0  0  0  0  0  0  0  0  0  0  0
  135.7510  138.1818  160.3073 H   0  0  0  0  0  0  0  0  0  0  0  0
  133.7140  140.3848  160.7596 H   0  0  0  0  0  0  0  0  0  0  0  0
  134.4594  139.8264  159.2244 H   0  0  0  0  0  0  0  0  0  0  0  0
  132.9736  138.0083  159.0148 H   0  0  0  0  0  0  0  0  0  0  0  0
  131.9125  139.0446  160.0176 H   0  0  0  0  0  0  0  0  0  0  0  0
  133.0715  134.8438  161.1873 H   0  0  0  0  0  0  0  0  0  0  0  0
  131.2805  133.3217  161.9129 H   0  0  0  0  0  0  0  0  0  0  0  0
  128.8262  131.6876  161.2377 H   0  0  0  0  0  0  0  0  0  0  0  0
  129.1659  134.4546  156.7305 H   0  0  0  0  0  0  0  0  0  0  0  0
  130.7526  129.9968  157.3140 H   0  0  0  0  0  0  0  0  0  0  0  0
  131.7824  128.9440  155.3434 H   0  0  0  0  0  0  0  0  0  0  0  0
  131.1062  132.4923  153.0735 H   0  0  0  0  0  0  0  0  0  0  0  0
  130.0627  133.5568  155.0305 H   0  0  0  0  0  0  0  0  0  0  0  0
  125.7629  133.9427  163.9490 H   0  0  0  0  0  0  0  0  0  0  0  0
  126.0297  135.1448  162.6129 H   0  0  0  0  0  0  0  0  0  0  0  0
  124.0563  135.3966  161.3880 H   0  0  0  0  0  0  0  0  0  0  0  0
  1  2  1  0
  1 40  1  0
  1 41  1  0
  1 42  1  0
  2 37  1  0
  2  3  1  0
  2  4  1  0
  3 43  1  0
  3 44  1  0
  3 45  1  0
  4  5  1  0
  4 36  1  0
  4 46  1  1
  5  6  1  0
  5 18  1  0
  5 47  1  6
  6  7  1  0
  6 48  1  0
  6 49  1  0
  7 17  1  0
  7  8  2  0
  8  9  1  0
  8 50  1  0
  9 10  2  0
  9 51  1  0
 10 11  1  0
 10 16  1  0
 11 15  1  0
 11 12  2  0
 12 13  1  0
 12 52  1  0
 13 14  1  0
 13 53  1  0
 13 54  1  0
 14 15  1  0
 14 55  1  0
 14 56  1  0
 15 57  1  0
 15 58  1  0
 16 17  2  0
 16 59  1  0
 17 60  1  0
 18 61  1  0
 19 18  1  0
 19 34  2  0
 19 20  1  0
 20 21  1  0
 20 22  1  0
 22 23  2  0
 22 62  1  0
 23 24  1  0
 23 34  1  0
 24 33  1  0
 24 25  2  0
 25 26  1  0
 25 63  1  0
 26 27  2  0
 26 64  1  0
 27 28  1  0
 27 32  1  0
 28 29  1  0
 28 30  1  0
 28 31  1  0
 32 33  2  0
 32 65  1  0
 33 66  1  0
 34 35  1  0
 36 37  1  0
 36 67  1  0
 36 68  1  0
 37 38  1  1
 37 39  1  0
 39 69  1  0
M  CHG  1  34   1
M  END
>  <DOCK_score>  (1) 
-50.542992

>  <SMILES>  (1) 
CC1(C)C(C(Cc2ccc(C3=CCCC3)cc2)Nc2[nH]cc(-c3ccc(C(F)(F)F)cc3)[nH+]2)C[C@H]1O

$$$$
