Cc1ccc([C@H](Nc2[nH]cc(-c3ccc(C4CC=CC4)cc3)[nH+]2)c2ccccc2)cc1
     RDKit          3D

 59 63  0  0  1  0  0  0  0  0999 V2000
  130.3354  140.9882  161.7643 C   0  0  0  0  0  0  0  0  0  0  0  0
  129.9575  139.6086  161.2900 C   0  0  0  0  0  0  0  0  0  0  0  0
  129.2450  138.7631  162.1204 C   0  0  0  0  0  0  0  0  0  0  0  0
  128.8985  137.4976  161.6851 C   0  0  0  0  0  0  0  0  0  0  0  0
  129.2644  137.0774  160.4201 C   0  0  0  0  0  0  0  0  0  0  0  0
  128.8871  135.6977  159.9459 C   0  0  2  0  0  0  0  0  0  0  0  0
  128.8359  135.0215  160.7993 H   0  0  0  0  0  0  0  0  0  0  0  0
  129.8954  135.2138  158.9995 N   0  0  0  0  0  0  0  0  0  0  0  0
  129.7617  133.9609  158.4260 C   0  0  0  0  0  0  0  0  0  0  0  0
  129.1619  132.8846  159.0039 N   0  0  0  0  0  0  0  0  0  0  0  0
  128.7544  132.8576  159.8837 H   0  0  0  0  0  0  0  0  0  0  0  0
  129.2399  131.8435  158.1111 C   0  0  0  0  0  0  0  0  0  0  0  0
  129.8843  132.3132  157.0142 C   0  0  0  0  0  0  0  0  0  0  0  0
  130.1974  131.5399  155.7878 C   0  0  0  0  0  0  0  0  0  0  0  0
  129.6921  131.9488  154.5548 C   0  0  0  0  0  0  0  0  0  0  0  0
  129.9863  131.2252  153.4172 C   0  0  0  0  0  0  0  0  0  0  0  0
  130.7813  130.0960  153.4988 C   0  0  0  0  0  0  0  0  0  0  0  0
  131.0984  129.3105  152.2524 C   0  0  0  0  0  0  0  0  0  0  0  0
  131.1065  127.7907  152.5421 C   0  0  0  0  0  0  0  0  0  0  0  0
  130.5062  127.1591  151.3076 C   0  0  0  0  0  0  0  0  0  0  0  0
  129.8756  128.0450  150.5857 C   0  0  0  0  0  0  0  0  0  0  0  0
  129.9503  129.4151  151.2182 C   0  0  0  0  0  0  0  0  0  0  0  0
  131.2813  129.6825  154.7205 C   0  0  0  0  0  0  0  0  0  0  0  0
  130.9978  130.4014  155.8640 C   0  0  0  0  0  0  0  0  0  0  0  0
  130.1972  133.6140  157.2396 N   0  0  0  0  0  0  0  0  0  0  0  0
  130.6663  134.1950  156.6205 H   0  0  0  0  0  0  0  0  0  0  0  0
  127.5437  135.7504  159.2652 C   0  0  0  0  0  0  0  0  0  0  0  0
  126.3887  135.5565  159.9994 C   0  0  0  0  0  0  0  0  0  0  0  0
  125.1562  135.6092  159.3757 C   0  0  0  0  0  0  0  0  0  0  0  0
  125.0791  135.8467  158.0160 C   0  0  0  0  0  0  0  0  0  0  0  0
  126.2344  136.0356  157.2810 C   0  0  0  0  0  0  0  0  0  0  0  0
  127.4667  135.9872  157.9054 C   0  0  0  0  0  0  0  0  0  0  0  0
  129.9815  137.9208  159.5922 C   0  0  0  0  0  0  0  0  0  0  0  0
  130.3230  139.1884  160.0253 C   0  0  0  0  0  0  0  0  0  0  0  0
  131.3068  140.9496  162.2572 H   0  0  0  0  0  0  0  0  0  0  0  0
  130.3868  141.6642  160.9115 H   0  0  0  0  0  0  0  0  0  0  0  0
  129.5851  141.3481  162.4690 H   0  0  0  0  0  0  0  0  0  0  0  0
  128.9594  139.0911  163.1089 H   0  0  0  0  0  0  0  0  0  0  0  0
  128.3422  136.8371  162.3338 H   0  0  0  0  0  0  0  0  0  0  0  0
  130.6567  135.7714  158.7748 H   0  0  0  0  0  0  0  0  0  0  0  0
  128.8602  130.8427  158.2549 H   0  0  0  0  0  0  0  0  0  0  0  0
  129.0717  132.8304  154.4899 H   0  0  0  0  0  0  0  0  0  0  0  0
  129.5957  131.5413  152.4612 H   0  0  0  0  0  0  0  0  0  0  0  0
  132.0465  129.6306  151.8206 H   0  0  0  0  0  0  0  0  0  0  0  0
  130.4965  127.5677  153.4176 H   0  0  0  0  0  0  0  0  0  0  0  0
  132.1269  127.4378  152.6912 H   0  0  0  0  0  0  0  0  0  0  0  0
  130.5884  126.1121  151.0557 H   0  0  0  0  0  0  0  0  0  0  0  0
  129.3677  127.8273  149.6578 H   0  0  0  0  0  0  0  0  0  0  0  0
  130.1853  130.1683  150.4661 H   0  0  0  0  0  0  0  0  0  0  0  0
  129.0102  129.6560  151.7147 H   0  0  0  0  0  0  0  0  0  0  0  0
  131.8976  128.7976  154.7790 H   0  0  0  0  0  0  0  0  0  0  0  0
  131.3924  130.0801  156.8167 H   0  0  0  0  0  0  0  0  0  0  0  0
  126.4491  135.3670  161.0609 H   0  0  0  0  0  0  0  0  0  0  0  0
  124.2535  135.4620  159.9502 H   0  0  0  0  0  0  0  0  0  0  0  0
  124.1162  135.8853  157.5284 H   0  0  0  0  0  0  0  0  0  0  0  0
  126.1742  136.2211  156.2187 H   0  0  0  0  0  0  0  0  0  0  0  0
  128.3693  136.1346  157.3310 H   0  0  0  0  0  0  0  0  0  0  0  0
  130.2711  137.5909  158.6054 H   0  0  0  0  0  0  0  0  0  0  0  0
  130.8794  139.8489  159.3768 H   0  0  0  0  0  0  0  0  0  0  0  0
  1  2  1  0
  1 35  1  0
  1 36  1  0
  1 37  1  0
  2 34  2  0
  2  3  1  0
  3  4  2  0
  3 38  1  0
  4  5  1  0
  4 39  1  0
  5  6  1  0
  5 33  2  0
  6  7  1  1
  6  8  1  0
  6 27  1  0
  8 40  1  0
  9  8  1  0
  9 25  2  0
  9 10  1  0
 10 11  1  0
 10 12  1  0
 12 13  2  0
 12 41  1  0
 13 14  1  0
 13 25  1  0
 14 24  1  0
 14 15  2  0
 15 16  1  0
 15 42  1  0
 16 17  2  0
 16 43  1  0
 17 18  1  0
 17 23  1  0
 18 22  1  0
 18 19  1  0
 18 44  1  0
 19 20  1  0
 19 45  1  0
 19 46  1  0
 20 21  2  0
 20 47  1  0
 21 22  1  0
 21 48  1  0
 22 49  1  0
 22 50  1  0
 23 24  2  0
 23 51  1  0
 24 52  1  0
 25 26  1  0
 27 32  1  0
 27 28  2  0
 28 29  1  0
 28 53  1  0
 29 30  2  0
 29 54  1  0
 30 31  1  0
 30 55  1  0
 31 32  2  0
 31 56  1  0
 32 57  1  0
 33 34  1  0
 33 58  1  0
 34 59  1  0
M  CHG  1  25   1
M  END
>  <DOCK_score>  (1) 
-62.812531

>  <SMILES>  (1) 
Cc1ccc([C@H](Nc2[nH]cc(-c3ccc(C4CC=CC4)cc3)[nH+]2)c2ccccc2)cc1

$$$$
