[NH3+][C@H](Cc1cccc(F)c1Br)Cc1c[nH]c2ccc(O)cc12
     RDKit          3D

 39 41  0  0  1  0  0  0  0  0999 V2000
  130.1609  135.0642  158.9803 N   0  0  0  0  0  0  0  0  0  0  0  0
  130.4437  134.8535  158.0350 H   0  0  0  0  0  0  0  0  0  0  0  0
  129.2004  135.3734  158.9830 H   0  0  0  0  0  0  0  0  0  0  0  0
  130.7500  135.7935  159.3531 H   0  0  0  0  0  0  0  0  0  0  0  0
  130.2897  133.8588  159.8100 C   0  0  2  0  0  0  0  0  0  0  0  0
  131.3271  133.5248  159.8071 H   0  0  0  0  0  0  0  0  0  0  0  0
  129.3962  132.7528  159.2448 C   0  0  0  0  0  0  0  0  0  0  0  0
  130.0849  132.0999  158.0741 C   0  0  0  0  0  0  0  0  0  0  0  0
  129.8862  132.5874  156.7957 C   0  0  0  0  0  0  0  0  0  0  0  0
  130.5209  131.9927  155.7214 C   0  0  0  0  0  0  0  0  0  0  0  0
  131.3471  130.9028  155.9225 C   0  0  0  0  0  0  0  0  0  0  0  0
  131.5432  130.4100  157.2010 C   0  0  0  0  0  0  0  0  0  0  0  0
  132.3501  129.3446  157.3986 F   0  0  0  0  0  0  0  0  0  0  0  0
  130.9107  131.0100  158.2780 C   0  0  0  0  0  0  0  0  0  0  0  0
  131.1774  130.3390  160.0258 Br  0  0  0  0  0  0  0  0  0  0  0  0
  129.8607  134.1781  161.2435 C   0  0  0  0  0  0  0  0  0  0  0  0
  128.4262  134.6399  161.2475 C   0  0  0  0  0  0  0  0  0  0  0  0
  127.9945  135.9053  161.1263 C   0  0  0  0  0  0  0  0  0  0  0  0
  126.6276  135.9381  161.1705 N   0  0  0  0  0  0  0  0  0  0  0  0
  126.0867  136.7402  161.1007 H   0  0  0  0  0  0  0  0  0  0  0  0
  126.1336  134.6612  161.3353 C   0  0  0  0  0  0  0  0  0  0  0  0
  124.8482  134.1414  161.4457 C   0  0  0  0  0  0  0  0  0  0  0  0
  124.6652  132.7864  161.6076 C   0  0  0  0  0  0  0  0  0  0  0  0
  125.7579  131.9247  161.6627 C   0  0  0  0  0  0  0  0  0  0  0  0
  125.5593  130.5888  161.8227 O   0  0  0  0  0  0  0  0  0  0  0  0
  127.0415  132.4209  161.5552 C   0  0  0  0  0  0  0  0  0  0  0  0
  127.2390  133.7937  161.3906 C   0  0  0  0  0  0  0  0  0  0  0  0
  129.2080  132.0074  160.0174 H   0  0  0  0  0  0  0  0  0  0  0  0
  128.4500  133.1825  158.9162 H   0  0  0  0  0  0  0  0  0  0  0  0
  129.2374  133.4361  156.6366 H   0  0  0  0  0  0  0  0  0  0  0  0
  130.3680  132.3771  154.7239 H   0  0  0  0  0  0  0  0  0  0  0  0
  131.8399  130.4361  155.0823 H   0  0  0  0  0  0  0  0  0  0  0  0
  129.9562  133.2837  161.8592 H   0  0  0  0  0  0  0  0  0  0  0  0
  130.4971  134.9661  161.6462 H   0  0  0  0  0  0  0  0  0  0  0  0
  128.6319  136.7692  161.0087 H   0  0  0  0  0  0  0  0  0  0  0  0
  123.9936  134.8006  161.4038 H   0  0  0  0  0  0  0  0  0  0  0  0
  123.6650  132.3881  161.6931 H   0  0  0  0  0  0  0  0  0  0  0  0
  126.3751  130.0705  161.8496 H   0  0  0  0  0  0  0  0  0  0  0  0
  127.8880  131.7515  161.5977 H   0  0  0  0  0  0  0  0  0  0  0  0
  1  2  1  0
  1  3  1  0
  1  4  1  0
  1  5  1  0
  5  6  1  1
  5  7  1  0
  5 16  1  0
  7  8  1  0
  7 28  1  0
  7 29  1  0
  8 14  1  0
  8  9  2  0
  9 10  1  0
  9 30  1  0
 10 11  2  0
 10 31  1  0
 11 12  1  0
 11 32  1  0
 12 13  1  0
 12 14  2  0
 14 15  1  0
 16 17  1  0
 16 33  1  0
 16 34  1  0
 17 27  1  0
 17 18  2  0
 18 19  1  0
 18 35  1  0
 19 20  1  0
 19 21  1  0
 21 27  2  0
 21 22  1  0
 22 23  2  0
 22 36  1  0
 23 24  1  0
 23 37  1  0
 24 25  1  0
 24 26  2  0
 25 38  1  0
 26 27  1  0
 26 39  1  0
M  CHG  1   1   1
M  END
>  <DOCK_score>  (1) 
-43.857803

>  <SMILES>  (1) 
[NH3+][C@H](Cc1cccc(F)c1Br)Cc1c[nH]c2ccc(O)cc12

$$$$
