Cc1ccc(N[C@H](C)c2cc[nH]n2)c(N[C@H](C)c2ccoc2)[nH+]1
     RDKit          3D

 45 47  0  0  1  0  0  0  0  0999 V2000
  131.9855  134.7167  164.3584 C   0  0  0  0  0  0  0  0  0  0  0  0
  131.5191  134.8059  162.9280 C   0  0  0  0  0  0  0  0  0  0  0  0
  130.7333  133.7991  162.4054 C   0  0  0  0  0  0  0  0  0  0  0  0
  130.3054  133.8835  161.0872 C   0  0  0  0  0  0  0  0  0  0  0  0
  130.6876  134.9880  160.3374 C   0  0  0  0  0  0  0  0  0  0  0  0
  130.2803  135.1175  159.0041 N   0  0  0  0  0  0  0  0  0  0  0  0
  129.0072  134.5390  158.5676 C   0  0  2  0  0  0  0  0  0  0  0  0
  129.0210  133.4621  158.7353 H   0  0  0  0  0  0  0  0  0  0  0  0
  128.8033  134.8205  157.0776 C   0  0  0  0  0  0  0  0  0  0  0  0
  127.8794  135.1556  159.3543 C   0  0  0  0  0  0  0  0  0  0  0  0
  126.5210  134.8526  159.2152 C   0  0  0  0  0  0  0  0  0  0  0  0
  125.8324  135.6123  160.0983 C   0  0  0  0  0  0  0  0  0  0  0  0
  126.7227  136.3754  160.7661 N   0  0  0  0  0  0  0  0  0  0  0  0
  126.5143  137.0210  161.4595 H   0  0  0  0  0  0  0  0  0  0  0  0
  128.0012  136.0707  160.2814 N   0  0  0  0  0  0  0  0  0  0  0  0
  131.4845  135.9682  160.9342 C   0  0  0  0  0  0  0  0  0  0  0  0
  131.8773  137.0828  160.1969 N   0  0  0  0  0  0  0  0  0  0  0  0
  132.1075  138.3630  160.8709 C   0  0  2  0  0  0  0  0  0  0  0  0
  131.3462  138.5127  161.6363 H   0  0  0  0  0  0  0  0  0  0  0  0
  132.0327  139.4984  159.8481 C   0  0  0  0  0  0  0  0  0  0  0  0
  133.4707  138.3546  161.5131 C   0  0  0  0  0  0  0  0  0  0  0  0
  134.4069  137.2952  161.4894 C   0  0  0  0  0  0  0  0  0  0  0  0
  135.4828  137.7103  162.1817 C   0  0  0  0  0  0  0  0  0  0  0  0
  135.2470  138.9553  162.6262 O   0  0  0  0  0  0  0  0  0  0  0  0
  134.0307  139.3534  162.2188 C   0  0  0  0  0  0  0  0  0  0  0  0
  131.8734  135.8435  162.1921 N   0  0  0  0  0  0  0  0  0  0  0  0
  132.4300  136.5337  162.5853 H   0  0  0  0  0  0  0  0  0  0  0  0
  132.9419  134.1955  164.3968 H   0  0  0  0  0  0  0  0  0  0  0  0
  132.1022  135.7209  164.7657 H   0  0  0  0  0  0  0  0  0  0  0  0
  131.2494  134.1691  164.9470 H   0  0  0  0  0  0  0  0  0  0  0  0
  130.4540  132.9530  163.0159 H   0  0  0  0  0  0  0  0  0  0  0  0
  129.6900  133.1084  160.6552 H   0  0  0  0  0  0  0  0  0  0  0  0
  130.8412  135.5903  158.3694 H   0  0  0  0  0  0  0  0  0  0  0  0
  128.7895  135.8975  156.9099 H   0  0  0  0  0  0  0  0  0  0  0  0
  129.6191  134.3747  156.5086 H   0  0  0  0  0  0  0  0  0  0  0  0
  127.8560  134.3902  156.7529 H   0  0  0  0  0  0  0  0  0  0  0  0
  126.0967  134.1373  158.5262 H   0  0  0  0  0  0  0  0  0  0  0  0
  124.7618  135.6113  160.2401 H   0  0  0  0  0  0  0  0  0  0  0  0
  131.9984  137.0112  159.2371 H   0  0  0  0  0  0  0  0  0  0  0  0
  132.2040  140.4510  160.3495 H   0  0  0  0  0  0  0  0  0  0  0  0
  132.7940  139.3486  159.0827 H   0  0  0  0  0  0  0  0  0  0  0  0
  131.0466  139.5045  159.3835 H   0  0  0  0  0  0  0  0  0  0  0  0
  134.2822  136.3369  161.0071 H   0  0  0  0  0  0  0  0  0  0  0  0
  136.3819  137.1375  162.3549 H   0  0  0  0  0  0  0  0  0  0  0  0
  133.5769  140.3112  162.4270 H   0  0  0  0  0  0  0  0  0  0  0  0
  1 28  1  0
  1 29  1  0
  1 30  1  0
  2  1  1  0
  2 26  2  0
  2  3  1  0
  3  4  2  0
  3 31  1  0
  4  5  1  0
  4 32  1  0
  5  6  1  0
  5 16  2  0
  6  7  1  0
  6 33  1  0
  7  8  1  6
  7  9  1  0
  7 10  1  0
  9 34  1  0
  9 35  1  0
  9 36  1  0
 10 15  2  0
 10 11  1  0
 11 12  2  0
 11 37  1  0
 12 13  1  0
 12 38  1  0
 13 14  1  0
 13 15  1  0
 16 17  1  0
 16 26  1  0
 17 18  1  0
 17 39  1  0
 18 19  1  1
 18 20  1  0
 18 21  1  0
 20 40  1  0
 20 41  1  0
 20 42  1  0
 21 25  2  0
 21 22  1  0
 22 23  2  0
 22 43  1  0
 23 24  1  0
 23 44  1  0
 24 25  1  0
 25 45  1  0
 26 27  1  0
M  CHG  1  26   1
M  END
>  <DOCK_score>  (1) 
-41.517628

>  <SMILES>  (1) 
Cc1ccc(N[C@H](C)c2cc[nH]n2)c(N[C@H](C)c2ccoc2)[nH+]1

$$$$
