O=C(C=Cc1cn(Cc2ccccc2)nc1-c1ccccc1)Nc1c[nH]nc1[C@H]1CCC[NH2+]C1
     RDKit          3D

 63 67  0  0  1  0  0  0  0  0999 V2000
  130.6322  136.6787  160.4160 O   0  0  0  0  0  0  0  0  0  0  0  0
  130.6917  136.1300  161.5015 C   0  0  0  0  0  0  0  0  0  0  0  0
  131.9220  136.0797  162.2040 C   0  0  0  0  0  0  0  0  0  0  0  0
  133.0288  136.6408  161.6691 C   0  0  0  0  0  0  0  0  0  0  0  0
  134.3028  136.5889  162.3967 C   0  0  0  0  0  0  0  0  0  0  0  0
  134.7209  135.5989  163.2659 C   0  0  0  0  0  0  0  0  0  0  0  0
  135.9417  135.9336  163.7139 N   0  0  0  0  0  0  0  0  0  0  0  0
  136.7386  135.1468  164.6585 C   0  0  0  0  0  0  0  0  0  0  0  0
  136.4213  135.5805  166.0664 C   0  0  0  0  0  0  0  0  0  0  0  0
  136.2045  134.6328  167.0493 C   0  0  0  0  0  0  0  0  0  0  0  0
  135.9182  135.0306  168.3417 C   0  0  0  0  0  0  0  0  0  0  0  0
  135.8384  136.3758  168.6492 C   0  0  0  0  0  0  0  0  0  0  0  0
  136.0501  137.3236  167.6653 C   0  0  0  0  0  0  0  0  0  0  0  0
  136.3415  136.9258  166.3740 C   0  0  0  0  0  0  0  0  0  0  0  0
  136.3369  137.1465  163.1428 N   0  0  0  0  0  0  0  0  0  0  0  0
  135.3884  137.5742  162.3407 C   0  0  0  0  0  0  0  0  0  0  0  0
  135.4095  138.8184  161.5347 C   0  0  0  0  0  0  0  0  0  0  0  0
  135.5293  140.0572  162.1629 C   0  0  0  0  0  0  0  0  0  0  0  0
  135.5536  141.2115  161.4071 C   0  0  0  0  0  0  0  0  0  0  0  0
  135.4484  141.1419  160.0295 C   0  0  0  0  0  0  0  0  0  0  0  0
  135.3235  139.9159  159.4011 C   0  0  0  0  0  0  0  0  0  0  0  0
  135.3037  138.7544  160.1462 C   0  0  0  0  0  0  0  0  0  0  0  0
  129.5877  135.5703  162.0350 N   0  0  0  0  0  0  0  0  0  0  0  0
  128.3665  135.6203  161.3378 C   0  0  0  0  0  0  0  0  0  0  0  0
  127.2190  136.1995  161.7752 C   0  0  0  0  0  0  0  0  0  0  0  0
  126.2779  136.0232  160.8118 N   0  0  0  0  0  0  0  0  0  0  0  0
  125.3580  136.3288  160.8495 H   0  0  0  0  0  0  0  0  0  0  0  0
  126.8707  135.3214  159.7543 N   0  0  0  0  0  0  0  0  0  0  0  0
  128.1189  135.0835  160.0658 C   0  0  0  0  0  0  0  0  0  0  0  0
  129.1183  134.3519  159.2073 C   0  0  1  0  0  0  0  0  0  0  0  0
  130.0753  134.3000  159.7266 H   0  0  0  0  0  0  0  0  0  0  0  0
  128.6110  132.9343  158.9272 C   0  0  0  0  0  0  0  0  0  0  0  0
  129.5952  132.2262  157.9917 C   0  0  0  0  0  0  0  0  0  0  0  0
  129.7550  133.0484  156.7113 C   0  0  0  0  0  0  0  0  0  0  0  0
  130.2675  134.3832  157.0433 N   0  0  0  0  0  0  0  0  0  0  0  0
  131.1391  134.2928  157.5434 H   0  0  0  0  0  0  0  0  0  0  0  0
  130.4211  134.9045  156.1933 H   0  0  0  0  0  0  0  0  0  0  0  0
  129.2957  135.0954  157.8817 C   0  0  0  0  0  0  0  0  0  0  0  0
  131.9747  135.5930  163.1667 H   0  0  0  0  0  0  0  0  0  0  0  0
  132.9762  137.1276  160.7065 H   0  0  0  0  0  0  0  0  0  0  0  0
  134.1647  134.7137  163.5365 H   0  0  0  0  0  0  0  0  0  0  0  0
  136.5011  134.0895  164.5417 H   0  0  0  0  0  0  0  0  0  0  0  0
  137.7986  135.3052  164.4597 H   0  0  0  0  0  0  0  0  0  0  0  0
  136.2625  133.5817  166.8081 H   0  0  0  0  0  0  0  0  0  0  0  0
  135.7526  134.2902  169.1104 H   0  0  0  0  0  0  0  0  0  0  0  0
  135.6104  136.6868  169.6582 H   0  0  0  0  0  0  0  0  0  0  0  0
  135.9874  138.3746  167.9054 H   0  0  0  0  0  0  0  0  0  0  0  0
  136.5065  137.6662  165.6051 H   0  0  0  0  0  0  0  0  0  0  0  0
  135.6075  140.1128  163.2386 H   0  0  0  0  0  0  0  0  0  0  0  0
  135.6510  142.1714  161.8923 H   0  0  0  0  0  0  0  0  0  0  0  0
  135.4633  142.0483  159.4423 H   0  0  0  0  0  0  0  0  0  0  0  0
  135.2416  139.8675  158.3253 H   0  0  0  0  0  0  0  0  0  0  0  0
  135.2069  137.7977  159.6544 H   0  0  0  0  0  0  0  0  0  0  0  0
  129.6350  135.1333  162.8996 H   0  0  0  0  0  0  0  0  0  0  0  0
  127.0788  136.7046  162.7195 H   0  0  0  0  0  0  0  0  0  0  0  0
  128.5368  132.3820  159.8640 H   0  0  0  0  0  0  0  0  0  0  0  0
  127.6305  132.9849  158.4539 H   0  0  0  0  0  0  0  0  0  0  0  0
  130.5621  132.1301  158.4858 H   0  0  0  0  0  0  0  0  0  0  0  0
  129.2132  131.2358  157.7438 H   0  0  0  0  0  0  0  0  0  0  0  0
  130.4549  132.5469  156.0429 H   0  0  0  0  0  0  0  0  0  0  0  0
  128.7876  133.1440  156.2183 H   0  0  0  0  0  0  0  0  0  0  0  0
  128.3382  135.1469  157.3634 H   0  0  0  0  0  0  0  0  0  0  0  0
  129.6566  136.1052  158.0776 H   0  0  0  0  0  0  0  0  0  0  0  0
  1  2  2  0
  2  3  1  0
  2 23  1  0
  3  4  2  0
  3 39  1  0
  4  5  1  0
  4 40  1  0
  5 16  1  0
  5  6  2  0
  6  7  1  0
  6 41  1  0
  7  8  1  0
  7 15  1  0
  8  9  1  0
  8 42  1  0
  8 43  1  0
  9 14  1  0
  9 10  2  0
 10 11  1  0
 10 44  1  0
 11 12  2  0
 11 45  1  0
 12 13  1  0
 12 46  1  0
 13 14  2  0
 13 47  1  0
 14 48  1  0
 15 16  2  0
 16 17  1  0
 17 22  1  0
 17 18  2  0
 18 19  1  0
 18 49  1  0
 19 20  2  0
 19 50  1  0
 20 21  1  0
 20 51  1  0
 21 22  2  0
 21 52  1  0
 22 53  1  0
 23 24  1  0
 23 54  1  0
 24 29  1  0
 24 25  2  0
 25 26  1  0
 25 55  1  0
 26 27  1  0
 26 28  1  0
 28 29  2  0
 29 30  1  0
 30 31  1  1
 30 38  1  0
 30 32  1  0
 32 33  1  0
 32 56  1  0
 32 57  1  0
 33 34  1  0
 33 58  1  0
 33 59  1  0
 34 35  1  0
 34 60  1  0
 34 61  1  0
 35 36  1  0
 35 37  1  0
 35 38  1  0
 38 62  1  0
 38 63  1  0
M  CHG  1  35   1
M  END
>  <DOCK_score>  (1) 
-44.128613

>  <SMILES>  (1) 
O=C(C=Cc1cn(Cc2ccccc2)nc1-c1ccccc1)Nc1c[nH]nc1[C@H]1CCC[NH2+]C1

$$$$
