CCc1ccc(-c2c[nH]c(N[C@@H](Cc3ccc(CCF)cc3)Cc3ccc(C)cn3)[nH+]2)cc1
     RDKit          3D

 65 68  0  0  1  0  0  0  0  0999 V2000
  132.2031  129.7335  152.5997 C   0  0  0  0  0  0  0  0  0  0  0  0
  130.7865  129.7023  153.1768 C   0  0  0  0  0  0  0  0  0  0  0  0
  130.7363  130.5372  154.4304 C   0  0  0  0  0  0  0  0  0  0  0  0
  130.4260  131.8829  154.3502 C   0  0  0  0  0  0  0  0  0  0  0  0
  130.3731  132.6509  155.4956 C   0  0  0  0  0  0  0  0  0  0  0  0
  130.6441  132.0708  156.7335 C   0  0  0  0  0  0  0  0  0  0  0  0
  130.5943  132.8923  157.9676 C   0  0  0  0  0  0  0  0  0  0  0  0
  130.2740  132.4495  159.2087 C   0  0  0  0  0  0  0  0  0  0  0  0
  130.3513  133.5323  160.0505 N   0  0  0  0  0  0  0  0  0  0  0  0
  130.1771  133.5318  161.0047 H   0  0  0  0  0  0  0  0  0  0  0  0
  130.7169  134.6061  159.2985 C   0  0  0  0  0  0  0  0  0  0  0  0
  130.9051  135.8941  159.7699 N   0  0  0  0  0  0  0  0  0  0  0  0
  130.1379  136.3716  160.9228 C   0  0  1  0  0  0  0  0  0  0  0  0
  130.0598  135.5748  161.6625 H   0  0  0  0  0  0  0  0  0  0  0  0
  130.8474  137.5765  161.5439 C   0  0  0  0  0  0  0  0  0  0  0  0
  132.2277  137.1704  161.9924 C   0  0  0  0  0  0  0  0  0  0  0  0
  133.2971  137.2810  161.1236 C   0  0  0  0  0  0  0  0  0  0  0  0
  134.5641  136.9135  161.5367 C   0  0  0  0  0  0  0  0  0  0  0  0
  134.7596  136.4247  162.8148 C   0  0  0  0  0  0  0  0  0  0  0  0
  136.1398  136.0182  163.2631 C   0  0  0  0  0  0  0  0  0  0  0  0
  136.8472  137.2211  163.8903 C   0  0  0  0  0  0  0  0  0  0  0  0
  136.1125  137.6716  164.9925 F   0  0  0  0  0  0  0  0  0  0  0  0
  133.6893  136.3091  163.6818 C   0  0  0  0  0  0  0  0  0  0  0  0
  132.4233  136.6821  163.2708 C   0  0  0  0  0  0  0  0  0  0  0  0
  128.7365  136.7839  160.4675 C   0  0  0  0  0  0  0  0  0  0  0  0
  127.8750  135.5565  160.3197 C   0  0  0  0  0  0  0  0  0  0  0  0
  127.1374  135.1055  161.3983 C   0  0  0  0  0  0  0  0  0  0  0  0
  126.3475  133.9757  161.2516 C   0  0  0  0  0  0  0  0  0  0  0  0
  126.3293  133.3387  160.0200 C   0  0  0  0  0  0  0  0  0  0  0  0
  125.4862  132.1072  159.8104 C   0  0  0  0  0  0  0  0  0  0  0  0
  127.0932  133.8476  158.9871 C   0  0  0  0  0  0  0  0  0  0  0  0
  127.8292  134.9280  159.1614 N   0  0  0  0  0  0  0  0  0  0  0  0
  130.8668  134.2185  158.0555 N   0  0  0  0  0  0  0  0  0  0  0  0
  131.1284  134.7892  157.3160 H   0  0  0  0  0  0  0  0  0  0  0  0
  130.9617  130.7157  156.8077 C   0  0  0  0  0  0  0  0  0  0  0  0
  131.0063  129.9561  155.6564 C   0  0  0  0  0  0  0  0  0  0  0  0
  132.9028  129.3313  153.3322 H   0  0  0  0  0  0  0  0  0  0  0  0
  132.2394  129.1298  151.6928 H   0  0  0  0  0  0  0  0  0  0  0  0
  132.4764  130.7618  152.3627 H   0  0  0  0  0  0  0  0  0  0  0  0
  130.0867  130.1046  152.4442 H   0  0  0  0  0  0  0  0  0  0  0  0
  130.5132  128.6742  153.4138 H   0  0  0  0  0  0  0  0  0  0  0  0
  130.2208  132.3323  153.3899 H   0  0  0  0  0  0  0  0  0  0  0  0
  130.1261  133.7004  155.4324 H   0  0  0  0  0  0  0  0  0  0  0  0
  130.0087  131.4392  159.4827 H   0  0  0  0  0  0  0  0  0  0  0  0
  131.5452  136.4803  159.3367 H   0  0  0  0  0  0  0  0  0  0  0  0
  130.9254  138.3733  160.8044 H   0  0  0  0  0  0  0  0  0  0  0  0
  130.2765  137.9317  162.4020 H   0  0  0  0  0  0  0  0  0  0  0  0
  133.1435  137.6584  160.1234 H   0  0  0  0  0  0  0  0  0  0  0  0
  135.4004  137.0041  160.8593 H   0  0  0  0  0  0  0  0  0  0  0  0
  136.0616  135.2182  163.9993 H   0  0  0  0  0  0  0  0  0  0  0  0
  136.7121  135.6672  162.4044 H   0  0  0  0  0  0  0  0  0  0  0  0
  137.8454  136.9273  164.2147 H   0  0  0  0  0  0  0  0  0  0  0  0
  136.9251  138.0212  163.1541 H   0  0  0  0  0  0  0  0  0  0  0  0
  133.8420  135.9272  164.6806 H   0  0  0  0  0  0  0  0  0  0  0  0
  131.5869  136.5914  163.9479 H   0  0  0  0  0  0  0  0  0  0  0  0
  128.2953  137.4506  161.2085 H   0  0  0  0  0  0  0  0  0  0  0  0
  128.8028  137.2990  159.5091 H   0  0  0  0  0  0  0  0  0  0  0  0
  127.1760  135.6267  162.3434 H   0  0  0  0  0  0  0  0  0  0  0  0
  125.7604  133.6008  162.0768 H   0  0  0  0  0  0  0  0  0  0  0  0
  124.4943  132.4000  159.4665 H   0  0  0  0  0  0  0  0  0  0  0  0
  125.9561  131.4682  159.0625 H   0  0  0  0  0  0  0  0  0  0  0  0
  125.3988  131.5625  160.7505 H   0  0  0  0  0  0  0  0  0  0  0  0
  127.0845  133.3573  158.0249 H   0  0  0  0  0  0  0  0  0  0  0  0
  131.1730  130.2610  157.7644 H   0  0  0  0  0  0  0  0  0  0  0  0
  131.2525  128.9061  155.7127 H   0  0  0  0  0  0  0  0  0  0  0  0
  1  2  1  0
  1 37  1  0
  1 38  1  0
  1 39  1  0
  2  3  1  0
  2 40  1  0
  2 41  1  0
  3 36  2  0
  3  4  1  0
  4  5  2  0
  4 42  1  0
  5  6  1  0
  5 43  1  0
  6  7  1  0
  6 35  2  0
  7 33  1  0
  7  8  2  0
  8  9  1  0
  8 44  1  0
  9 10  1  0
  9 11  1  0
 11 12  1  0
 11 33  2  0
 12 13  1  0
 12 45  1  0
 13 14  1  1
 13 15  1  0
 13 25  1  0
 15 16  1  0
 15 46  1  0
 15 47  1  0
 16 24  1  0
 16 17  2  0
 17 18  1  0
 17 48  1  0
 18 19  2  0
 18 49  1  0
 19 20  1  0
 19 23  1  0
 20 21  1  0
 20 50  1  0
 20 51  1  0
 21 22  1  0
 21 52  1  0
 21 53  1  0
 23 24  2  0
 23 54  1  0
 24 55  1  0
 25 26  1  0
 25 56  1  0
 25 57  1  0
 26 32  1  0
 26 27  2  0
 27 28  1  0
 27 58  1  0
 28 29  2  0
 28 59  1  0
 29 30  1  0
 29 31  1  0
 30 60  1  0
 30 61  1  0
 30 62  1  0
 31 32  2  0
 31 63  1  0
 33 34  1  0
 35 36  1  0
 35 64  1  0
 36 65  1  0
M  CHG  1  33   1
M  END
>  <DOCK_score>  (1) 
-56.851078

>  <SMILES>  (1) 
CCc1ccc(-c2c[nH]c(N[C@@H](Cc3ccc(CCF)cc3)Cc3ccc(C)cn3)[nH+]2)cc1

$$$$
