ClC[C@H](Cc1ccc(Cl)cc1)N1CC[NH+](Cc2cccc3ccccc23)CC1
     RDKit          3D

 55 58  0  0  1  0  0  0  0  0999 V2000
  128.7955  130.2057  158.9848 Cl  0  0  0  0  0  0  0  0  0  0  0  0
  130.1597  130.4906  157.8409 C   0  0  0  0  0  0  0  0  0  0  0  0
  129.9952  131.8616  157.1821 C   0  0  2  0  0  0  0  0  0  0  0  0
  129.0516  131.8920  156.6371 H   0  0  0  0  0  0  0  0  0  0  0  0
  131.1529  132.1033  156.2114 C   0  0  0  0  0  0  0  0  0  0  0  0
  130.8843  131.3773  154.9185 C   0  0  0  0  0  0  0  0  0  0  0  0
  131.3212  130.0762  154.7530 C   0  0  0  0  0  0  0  0  0  0  0  0
  131.0802  129.4117  153.5653 C   0  0  0  0  0  0  0  0  0  0  0  0
  130.3920  130.0452  152.5458 C   0  0  0  0  0  0  0  0  0  0  0  0
  130.0835  129.2092  151.0561 Cl  0  0  0  0  0  0  0  0  0  0  0  0
  129.9545  131.3472  152.7122 C   0  0  0  0  0  0  0  0  0  0  0  0
  130.2008  132.0124  153.8985 C   0  0  0  0  0  0  0  0  0  0  0  0
  129.9971  132.9050  158.2161 N   0  0  0  0  0  0  0  0  0  0  0  0
  129.3060  134.1139  157.7459 C   0  0  0  0  0  0  0  0  0  0  0  0
  129.2781  135.1517  158.8700 C   0  0  0  0  0  0  0  0  0  0  0  0
  130.6533  135.4776  159.2702 N   0  0  0  0  0  0  0  0  0  0  0  0
  131.1571  135.8416  158.4755 H   0  0  0  0  0  0  0  0  0  0  0  0
  130.6264  136.4872  160.3369 C   0  0  0  0  0  0  0  0  0  0  0  0
  131.9651  137.1753  160.4112 C   0  0  0  0  0  0  0  0  0  0  0  0
  132.2031  138.2908  159.6682 C   0  0  0  0  0  0  0  0  0  0  0  0
  133.4329  138.9432  159.7272 C   0  0  0  0  0  0  0  0  0  0  0  0
  134.4354  138.4785  160.5222 C   0  0  0  0  0  0  0  0  0  0  0  0
  134.2285  137.3267  161.2998 C   0  0  0  0  0  0  0  0  0  0  0  0
  135.2395  136.8173  162.1330 C   0  0  0  0  0  0  0  0  0  0  0  0
  135.0031  135.6996  162.8724 C   0  0  0  0  0  0  0  0  0  0  0  0
  133.7716  135.0492  162.8163 C   0  0  0  0  0  0  0  0  0  0  0  0
  132.7692  135.5136  162.0215 C   0  0  0  0  0  0  0  0  0  0  0  0
  132.9759  136.6656  161.2433 C   0  0  0  0  0  0  0  0  0  0  0  0
  131.3226  134.2654  159.7605 C   0  0  0  0  0  0  0  0  0  0  0  0
  131.3676  133.2202  158.6438 C   0  0  0  0  0  0  0  0  0  0  0  0
  130.1581  129.7163  157.0736 H   0  0  0  0  0  0  0  0  0  0  0  0
  131.1031  130.4601  158.3858 H   0  0  0  0  0  0  0  0  0  0  0  0
  132.0788  131.7325  156.6508 H   0  0  0  0  0  0  0  0  0  0  0  0
  131.2457  133.1716  156.0156 H   0  0  0  0  0  0  0  0  0  0  0  0
  131.8549  129.5804  155.5503 H   0  0  0  0  0  0  0  0  0  0  0  0
  131.4258  128.3969  153.4343 H   0  0  0  0  0  0  0  0  0  0  0  0
  129.4212  131.8437  151.9152 H   0  0  0  0  0  0  0  0  0  0  0  0
  129.8593  133.0287  154.0284 H   0  0  0  0  0  0  0  0  0  0  0  0
  129.8351  134.5238  156.8855 H   0  0  0  0  0  0  0  0  0  0  0  0
  128.2854  133.8609  157.4589 H   0  0  0  0  0  0  0  0  0  0  0  0
  128.7372  134.7466  159.7252 H   0  0  0  0  0  0  0  0  0  0  0  0
  128.7784  136.0545  158.5187 H   0  0  0  0  0  0  0  0  0  0  0  0
  129.8513  137.2226  160.1216 H   0  0  0  0  0  0  0  0  0  0  0  0
  130.4132  136.0031  161.2900 H   0  0  0  0  0  0  0  0  0  0  0  0
  131.4259  138.6779  159.0259 H   0  0  0  0  0  0  0  0  0  0  0  0
  133.5945  139.8286  159.1301 H   0  0  0  0  0  0  0  0  0  0  0  0
  135.3845  138.9927  160.5555 H   0  0  0  0  0  0  0  0  0  0  0  0
  136.1989  137.3104  162.1858 H   0  0  0  0  0  0  0  0  0  0  0  0
  135.7816  135.3103  163.5116 H   0  0  0  0  0  0  0  0  0  0  0  0
  133.6102  134.1637  163.4131 H   0  0  0  0  0  0  0  0  0  0  0  0
  131.8199  134.9996  161.9889 H   0  0  0  0  0  0  0  0  0  0  0  0
  130.7712  133.8648  160.6111 H   0  0  0  0  0  0  0  0  0  0  0  0
  132.3386  134.5111  160.0694 H   0  0  0  0  0  0  0  0  0  0  0  0
  131.8509  132.3152  159.0119 H   0  0  0  0  0  0  0  0  0  0  0  0
  131.9305  133.6154  157.7982 H   0  0  0  0  0  0  0  0  0  0  0  0
  1  2  1  0
  2  3  1  0
  2 31  1  0
  2 32  1  0
  3  4  1  6
  3  5  1  0
  3 13  1  0
  5  6  1  0
  5 33  1  0
  5 34  1  0
  6 12  1  0
  6  7  2  0
  7  8  1  0
  7 35  1  0
  8  9  2  0
  8 36  1  0
  9 10  1  0
  9 11  1  0
 11 12  2  0
 11 37  1  0
 12 38  1  0
 13 30  1  0
 13 14  1  0
 14 15  1  0
 14 39  1  0
 14 40  1  0
 15 16  1  0
 15 41  1  0
 15 42  1  0
 16 17  1  0
 16 18  1  0
 16 29  1  0
 18 19  1  0
 18 43  1  0
 18 44  1  0
 19 28  1  0
 19 20  2  0
 20 21  1  0
 20 45  1  0
 21 22  2  0
 21 46  1  0
 22 23  1  0
 22 47  1  0
 23 28  2  0
 23 24  1  0
 24 25  2  0
 24 48  1  0
 25 26  1  0
 25 49  1  0
 26 27  2  0
 26 50  1  0
 27 28  1  0
 27 51  1  0
 29 30  1  0
 29 52  1  0
 29 53  1  0
 30 54  1  0
 30 55  1  0
M  CHG  1  16   1
M  END
>  <DOCK_score>  (1) 
-57.412102

>  <SMILES>  (1) 
ClC[C@H](Cc1ccc(Cl)cc1)N1CC[NH+](Cc2cccc3ccccc23)CC1

$$$$
