Fc1ccc(C(Nc2[nH]cc(-c3ccc(C4CC=CC4)cc3)[nH+]2)c2ccc(F)cc2)cc1
     RDKit          3D

 56 60  0  0  1  0  0  0  0  0999 V2000
  124.1297  135.4323  160.1740 F   0  0  0  0  0  0  0  0  0  0  0  0
  125.4773  135.5268  160.1880 C   0  0  0  0  0  0  0  0  0  0  0  0
  126.1778  135.2691  161.3542 C   0  0  0  0  0  0  0  0  0  0  0  0
  127.5568  135.3609  161.3660 C   0  0  0  0  0  0  0  0  0  0  0  0
  128.2363  135.7150  160.2154 C   0  0  0  0  0  0  0  0  0  0  0  0
  129.7399  135.8148  160.2296 C   0  0  0  0  0  0  0  0  0  0  0  0
  130.2635  135.4901  158.9005 N   0  0  0  0  0  0  0  0  0  0  0  0
  130.0161  134.2468  158.3439 C   0  0  0  0  0  0  0  0  0  0  0  0
  129.3087  133.2426  158.9297 N   0  0  0  0  0  0  0  0  0  0  0  0
  128.8906  133.2690  159.8046 H   0  0  0  0  0  0  0  0  0  0  0  0
  129.2935  132.1859  158.0521 C   0  0  0  0  0  0  0  0  0  0  0  0
  129.9983  132.5713  156.9597 C   0  0  0  0  0  0  0  0  0  0  0  0
  130.2527  131.7507  155.7506 C   0  0  0  0  0  0  0  0  0  0  0  0
  129.8053  132.1844  154.5039 C   0  0  0  0  0  0  0  0  0  0  0  0
  130.0501  131.4197  153.3814 C   0  0  0  0  0  0  0  0  0  0  0  0
  130.7275  130.2187  153.4938 C   0  0  0  0  0  0  0  0  0  0  0  0
  130.9858  129.3849  152.2656 C   0  0  0  0  0  0  0  0  0  0  0  0
  129.7803  129.4329  151.2983 C   0  0  0  0  0  0  0  0  0  0  0  0
  129.6903  128.0357  150.7281 C   0  0  0  0  0  0  0  0  0  0  0  0
  130.3762  127.1893  151.4470 C   0  0  0  0  0  0  0  0  0  0  0  0
  131.0374  127.8799  152.6171 C   0  0  0  0  0  0  0  0  0  0  0  0
  131.1689  129.7806  154.7294 C   0  0  0  0  0  0  0  0  0  0  0  0
  130.9350  130.5401  155.8577 C   0  0  0  0  0  0  0  0  0  0  0  0
  130.4293  133.8409  157.1681 N   0  0  0  0  0  0  0  0  0  0  0  0
  130.9586  134.3645  156.5464 H   0  0  0  0  0  0  0  0  0  0  0  0
  130.1468  137.2177  160.6008 C   0  0  0  0  0  0  0  0  0  0  0  0
  130.3373  137.5530  161.9283 C   0  0  0  0  0  0  0  0  0  0  0  0
  130.7152  138.8379  162.2696 C   0  0  0  0  0  0  0  0  0  0  0  0
  130.8924  139.7921  161.2821 C   0  0  0  0  0  0  0  0  0  0  0  0
  131.2559  141.0500  161.6150 F   0  0  0  0  0  0  0  0  0  0  0  0
  130.6961  139.4564  159.9532 C   0  0  0  0  0  0  0  0  0  0  0  0
  130.3238  138.1695  159.6139 C   0  0  0  0  0  0  0  0  0  0  0  0
  127.5376  135.9782  159.0519 C   0  0  0  0  0  0  0  0  0  0  0  0
  126.1587  135.8869  159.0377 C   0  0  0  0  0  0  0  0  0  0  0  0
  125.6472  134.9921  162.2532 H   0  0  0  0  0  0  0  0  0  0  0  0
  128.1036  135.1564  162.2746 H   0  0  0  0  0  0  0  0  0  0  0  0
  130.1437  135.1141  160.9604 H   0  0  0  0  0  0  0  0  0  0  0  0
  130.7834  136.1461  158.4103 H   0  0  0  0  0  0  0  0  0  0  0  0
  128.8155  131.2296  158.2049 H   0  0  0  0  0  0  0  0  0  0  0  0
  129.2720  133.1194  154.4158 H   0  0  0  0  0  0  0  0  0  0  0  0
  129.7084  131.7572  152.4142 H   0  0  0  0  0  0  0  0  0  0  0  0
  131.9013  129.7014  151.7657 H   0  0  0  0  0  0  0  0  0  0  0  0
  128.8680  129.6810  151.8406 H   0  0  0  0  0  0  0  0  0  0  0  0
  129.9595  130.1571  150.5037 H   0  0  0  0  0  0  0  0  0  0  0  0
  129.1323  127.7726  149.8416 H   0  0  0  0  0  0  0  0  0  0  0  0
  130.4601  126.1339  151.2335 H   0  0  0  0  0  0  0  0  0  0  0  0
  132.0710  127.5489  152.7186 H   0  0  0  0  0  0  0  0  0  0  0  0
  130.4853  127.6856  153.5365 H   0  0  0  0  0  0  0  0  0  0  0  0
  131.6979  128.8425  154.8111 H   0  0  0  0  0  0  0  0  0  0  0  0
  131.2805  130.1972  156.8219 H   0  0  0  0  0  0  0  0  0  0  0  0
  130.1944  136.8098  162.6987 H   0  0  0  0  0  0  0  0  0  0  0  0
  130.8675  139.0988  163.3064 H   0  0  0  0  0  0  0  0  0  0  0  0
  130.8336  140.2000  159.1821 H   0  0  0  0  0  0  0  0  0  0  0  0
  130.1707  137.9074  158.5774 H   0  0  0  0  0  0  0  0  0  0  0  0
  128.0695  136.2546  158.1536 H   0  0  0  0  0  0  0  0  0  0  0  0
  125.6130  136.0921  158.1286 H   0  0  0  0  0  0  0  0  0  0  0  0
  1  2  1  0
  2 34  2  0
  2  3  1  0
  3  4  2  0
  3 35  1  0
  4  5  1  0
  4 36  1  0
  5  6  1  0
  5 33  2  0
  6  7  1  0
  6 26  1  0
  6 37  1  0
  7 38  1  0
  8  7  1  0
  8 24  2  0
  8  9  1  0
  9 10  1  0
  9 11  1  0
 11 12  2  0
 11 39  1  0
 12 13  1  0
 12 24  1  0
 13 23  1  0
 13 14  2  0
 14 15  1  0
 14 40  1  0
 15 16  2  0
 15 41  1  0
 16 17  1  0
 16 22  1  0
 17 21  1  0
 17 18  1  0
 17 42  1  0
 18 19  1  0
 18 43  1  0
 18 44  1  0
 19 20  2  0
 19 45  1  0
 20 21  1  0
 20 46  1  0
 21 47  1  0
 21 48  1  0
 22 23  2  0
 22 49  1  0
 23 50  1  0
 24 25  1  0
 26 32  1  0
 26 27  2  0
 27 28  1  0
 27 51  1  0
 28 29  2  0
 28 52  1  0
 29 30  1  0
 29 31  1  0
 31 32  2  0
 31 53  1  0
 32 54  1  0
 33 34  1  0
 33 55  1  0
 34 56  1  0
M  CHG  1  24   1
M  END
>  <DOCK_score>  (1) 
-62.937721

>  <SMILES>  (1) 
Fc1ccc(C(Nc2[nH]cc(-c3ccc(C4CC=CC4)cc3)[nH+]2)c2ccc(F)cc2)cc1

$$$$
