CC1=CCCN(c2ccc(Cl)c(C[NH2+][C@H](CO)Cc3cccc(-c4cccc5ccccc45)c3)c2)C1
     RDKit          3D

 70 74  0  0  1  0  0  0  0  0999 V2000
  130.9619  131.9923  154.3410 C   0  0  0  0  0  0  0  0  0  0  0  0
  130.9769  131.6591  155.8105 C   0  0  0  0  0  0  0  0  0  0  0  0
  131.4099  130.4903  156.1735 C   0  0  0  0  0  0  0  0  0  0  0  0
  131.4620  130.0487  157.6093 C   0  0  0  0  0  0  0  0  0  0  0  0
  131.3403  131.2662  158.5289 C   0  0  0  0  0  0  0  0  0  0  0  0
  130.1962  132.0775  158.0808 N   0  0  0  0  0  0  0  0  0  0  0  0
  129.8654  133.0457  159.0327 C   0  0  0  0  0  0  0  0  0  0  0  0
  128.6012  133.0521  159.6085 C   0  0  0  0  0  0  0  0  0  0  0  0
  128.2770  134.0102  160.5485 C   0  0  0  0  0  0  0  0  0  0  0  0
  129.2100  134.9639  160.9167 C   0  0  0  0  0  0  0  0  0  0  0  0
  128.7987  136.1675  162.0983 Cl  0  0  0  0  0  0  0  0  0  0  0  0
  130.4699  134.9597  160.3451 C   0  0  0  0  0  0  0  0  0  0  0  0
  131.4834  135.9995  160.7489 C   0  0  0  0  0  0  0  0  0  0  0  0
  131.3582  137.1715  159.8723 N   0  0  0  0  0  0  0  0  0  0  0  0
  130.4294  137.5567  159.9562 H   0  0  0  0  0  0  0  0  0  0  0  0
  131.5226  136.8953  158.9159 H   0  0  0  0  0  0  0  0  0  0  0  0
  132.3461  138.1851  160.2659 C   0  0  2  0  0  0  0  0  0  0  0  0
  132.4105  138.2267  161.3531 H   0  0  0  0  0  0  0  0  0  0  0  0
  131.9170  139.5515  159.7275 C   0  0  0  0  0  0  0  0  0  0  0  0
  130.5023  139.6958  159.8676 O   0  0  0  0  0  0  0  0  0  0  0  0
  133.7137  137.8157  159.6878 C   0  0  0  0  0  0  0  0  0  0  0  0
  134.7941  138.5311  160.4573 C   0  0  0  0  0  0  0  0  0  0  0  0
  135.2177  139.7838  160.0501 C   0  0  0  0  0  0  0  0  0  0  0  0
  136.2089  140.4466  160.7511 C   0  0  0  0  0  0  0  0  0  0  0  0
  136.7811  139.8615  161.8623 C   0  0  0  0  0  0  0  0  0  0  0  0
  136.3583  138.5993  162.2777 C   0  0  0  0  0  0  0  0  0  0  0  0
  136.9684  137.9657  163.4696 C   0  0  0  0  0  0  0  0  0  0  0  0
  138.3270  137.7052  163.5047 C   0  0  0  0  0  0  0  0  0  0  0  0
  138.9072  137.1121  164.6201 C   0  0  0  0  0  0  0  0  0  0  0  0
  138.1586  136.7702  165.7058 C   0  0  0  0  0  0  0  0  0  0  0  0
  136.7751  137.0163  165.7126 C   0  0  0  0  0  0  0  0  0  0  0  0
  135.9805  136.6735  166.8205 C   0  0  0  0  0  0  0  0  0  0  0  0
  134.6433  136.9263  166.7941 C   0  0  0  0  0  0  0  0  0  0  0  0
  134.0477  137.5204  165.6834 C   0  0  0  0  0  0  0  0  0  0  0  0
  134.7873  137.8650  164.5928 C   0  0  0  0  0  0  0  0  0  0  0  0
  136.1682  137.6206  164.5846 C   0  0  0  0  0  0  0  0  0  0  0  0
  135.3629  137.9331  161.5629 C   0  0  0  0  0  0  0  0  0  0  0  0
  130.7980  134.0067  159.4006 C   0  0  0  0  0  0  0  0  0  0  0  0
  130.4906  132.6958  156.7818 C   0  0  0  0  0  0  0  0  0  0  0  0
  131.9116  132.4489  154.0622 H   0  0  0  0  0  0  0  0  0  0  0  0
  130.8139  131.0800  153.7631 H   0  0  0  0  0  0  0  0  0  0  0  0
  130.1494  132.6889  154.1346 H   0  0  0  0  0  0  0  0  0  0  0  0
  131.7480  129.8051  155.4101 H   0  0  0  0  0  0  0  0  0  0  0  0
  130.6395  129.3615  157.8073 H   0  0  0  0  0  0  0  0  0  0  0  0
  132.4095  129.5447  157.7995 H   0  0  0  0  0  0  0  0  0  0  0  0
  132.2535  131.8588  158.4739 H   0  0  0  0  0  0  0  0  0  0  0  0
  131.1756  130.9358  159.5545 H   0  0  0  0  0  0  0  0  0  0  0  0
  127.8728  132.3082  159.3216 H   0  0  0  0  0  0  0  0  0  0  0  0
  127.2943  134.0158  160.9966 H   0  0  0  0  0  0  0  0  0  0  0  0
  132.4867  135.5834  160.6583 H   0  0  0  0  0  0  0  0  0  0  0  0
  131.3057  136.2979  161.7821 H   0  0  0  0  0  0  0  0  0  0  0  0
  132.4200  140.3378  160.2902 H   0  0  0  0  0  0  0  0  0  0  0  0
  132.1876  139.6283  158.6744 H   0  0  0  0  0  0  0  0  0  0  0  0
  130.1895  139.6380  160.7808 H   0  0  0  0  0  0  0  0  0  0  0  0
  133.7572  138.1121  158.6397 H   0  0  0  0  0  0  0  0  0  0  0  0
  133.8631  136.7390  159.7675 H   0  0  0  0  0  0  0  0  0  0  0  0
  134.7729  140.2456  159.1810 H   0  0  0  0  0  0  0  0  0  0  0  0
  136.5355  141.4242  160.4285 H   0  0  0  0  0  0  0  0  0  0  0  0
  137.5548  140.3800  162.4090 H   0  0  0  0  0  0  0  0  0  0  0  0
  138.9432  137.9665  162.6571 H   0  0  0  0  0  0  0  0  0  0  0  0
  139.9697  136.9187  164.6259 H   0  0  0  0  0  0  0  0  0  0  0  0
  138.6297  136.3138  166.5637 H   0  0  0  0  0  0  0  0  0  0  0  0
  136.4285  136.2118  167.6878 H   0  0  0  0  0  0  0  0  0  0  0  0
  134.0348  136.6620  167.6464 H   0  0  0  0  0  0  0  0  0  0  0  0
  132.9846  137.7101  165.6871 H   0  0  0  0  0  0  0  0  0  0  0  0
  134.3125  138.3250  163.7386 H   0  0  0  0  0  0  0  0  0  0  0  0
  135.0346  136.9534  161.8772 H   0  0  0  0  0  0  0  0  0  0  0  0
  131.7803  134.0066  158.9515 H   0  0  0  0  0  0  0  0  0  0  0  0
  129.5861  133.1611  156.3902 H   0  0  0  0  0  0  0  0  0  0  0  0
  131.2610  133.4561  156.9103 H   0  0  0  0  0  0  0  0  0  0  0  0
  1  2  1  0
  1 40  1  0
  1 41  1  0
  1 42  1  0
  2 39  1  0
  2  3  2  0
  3  4  1  0
  3 43  1  0
  4  5  1  0
  4 44  1  0
  4 45  1  0
  5  6  1  0
  5 46  1  0
  5 47  1  0
  6  7  1  0
  6 39  1  0
  7 38  1  0
  7  8  2  0
  8  9  1  0
  8 48  1  0
  9 10  2  0
  9 49  1  0
 10 11  1  0
 10 12  1  0
 12 13  1  0
 12 38  2  0
 13 14  1  0
 13 50  1  0
 13 51  1  0
 14 15  1  0
 14 16  1  0
 14 17  1  0
 17 18  1  1
 17 19  1  0
 17 21  1  0
 19 20  1  0
 19 52  1  0
 19 53  1  0
 20 54  1  0
 21 22  1  0
 21 55  1  0
 21 56  1  0
 22 37  1  0
 22 23  2  0
 23 24  1  0
 23 57  1  0
 24 25  2  0
 24 58  1  0
 25 26  1  0
 25 59  1  0
 26 27  1  0
 26 37  2  0
 27 36  1  0
 27 28  2  0
 28 29  1  0
 28 60  1  0
 29 30  2  0
 29 61  1  0
 30 31  1  0
 30 62  1  0
 31 36  2  0
 31 32  1  0
 32 33  2  0
 32 63  1  0
 33 34  1  0
 33 64  1  0
 34 35  2  0
 34 65  1  0
 35 36  1  0
 35 66  1  0
 37 67  1  0
 38 68  1  0
 39 69  1  0
 39 70  1  0
M  CHG  1  14   1
M  END
>  <DOCK_score>  (1) 
-59.546204

>  <SMILES>  (1) 
CC1=CCCN(c2ccc(Cl)c(C[NH2+][C@H](CO)Cc3cccc(-c4cccc5ccccc45)c3)c2)C1

$$$$
