C[C@@H](c1ccc(Nc2nc(Cc3ccccc3Br)cs2)cc1)[NH+]1CCCC1
     RDKit          3D

 52 55  0  0  1  0  0  0  0  0999 V2000
  130.4383  139.8156  159.9089 C   0  0  0  0  0  0  0  0  0  0  0  0
  130.7457  138.5290  160.6777 C   0  0  1  0  0  0  0  0  0  0  0  0
  131.0971  138.7790  161.6786 H   0  0  0  0  0  0  0  0  0  0  0  0
  129.4959  137.6930  160.7781 C   0  0  0  0  0  0  0  0  0  0  0  0
  128.8653  137.2537  159.6284 C   0  0  0  0  0  0  0  0  0  0  0  0
  127.7199  136.4874  159.7169 C   0  0  0  0  0  0  0  0  0  0  0  0
  127.2010  136.1579  160.9626 C   0  0  0  0  0  0  0  0  0  0  0  0
  126.0420  135.3826  161.0560 N   0  0  0  0  0  0  0  0  0  0  0  0
  126.0166  134.1055  160.5157 C   0  0  0  0  0  0  0  0  0  0  0  0
  127.0097  133.5370  159.9053 N   0  0  0  0  0  0  0  0  0  0  0  0
  126.8084  132.3146  159.4477 C   0  0  0  0  0  0  0  0  0  0  0  0
  127.8691  131.5347  158.7143 C   0  0  0  0  0  0  0  0  0  0  0  0
  129.1824  131.6661  159.4417 C   0  0  0  0  0  0  0  0  0  0  0  0
  129.1988  131.8426  160.8125 C   0  0  0  0  0  0  0  0  0  0  0  0
  130.4033  131.9626  161.4798 C   0  0  0  0  0  0  0  0  0  0  0  0
  131.5928  131.9066  160.7757 C   0  0  0  0  0  0  0  0  0  0  0  0
  131.5769  131.7301  159.4059 C   0  0  0  0  0  0  0  0  0  0  0  0
  130.3714  131.6156  158.7368 C   0  0  0  0  0  0  0  0  0  0  0  0
  130.3495  131.3814  156.8606 Br  0  0  0  0  0  0  0  0  0  0  0  0
  125.5926  131.8242  159.6918 C   0  0  0  0  0  0  0  0  0  0  0  0
  124.6736  133.0486  160.5634 S   0  0  0  0  0  0  0  0  0  0  0  0
  127.8337  136.6056  162.1156 C   0  0  0  0  0  0  0  0  0  0  0  0
  128.9823  137.3663  162.0199 C   0  0  0  0  0  0  0  0  0  0  0  0
  131.7857  137.7715  159.9687 N   0  0  0  0  0  0  0  0  0  0  0  0
  131.4714  137.5341  159.0396 H   0  0  0  0  0  0  0  0  0  0  0  0
  133.0397  138.5646  159.8997 C   0  0  0  0  0  0  0  0  0  0  0  0
  134.1286  137.4866  159.6702 C   0  0  0  0  0  0  0  0  0  0  0  0
  133.6362  136.3071  160.5397 C   0  0  0  0  0  0  0  0  0  0  0  0
  132.1255  136.5445  160.7211 C   0  0  0  0  0  0  0  0  0  0  0  0
  129.5965  140.3261  160.3769 H   0  0  0  0  0  0  0  0  0  0  0  0
  131.3126  140.4662  159.9252 H   0  0  0  0  0  0  0  0  0  0  0  0
  130.1865  139.5708  158.8770 H   0  0  0  0  0  0  0  0  0  0  0  0
  129.2694  137.5100  158.6600 H   0  0  0  0  0  0  0  0  0  0  0  0
  127.2277  136.1450  158.8185 H   0  0  0  0  0  0  0  0  0  0  0  0
  125.2554  135.7378  161.4985 H   0  0  0  0  0  0  0  0  0  0  0  0
  127.9735  131.9260  157.7023 H   0  0  0  0  0  0  0  0  0  0  0  0
  127.5819  130.4841  158.6697 H   0  0  0  0  0  0  0  0  0  0  0  0
  128.2702  131.8862  161.3625 H   0  0  0  0  0  0  0  0  0  0  0  0
  130.4157  132.1002  162.5510 H   0  0  0  0  0  0  0  0  0  0  0  0
  132.5331  131.9999  161.2984 H   0  0  0  0  0  0  0  0  0  0  0  0
  132.5058  131.6862  158.8565 H   0  0  0  0  0  0  0  0  0  0  0  0
  125.2337  130.8468  159.4046 H   0  0  0  0  0  0  0  0  0  0  0  0
  127.4303  136.3553  163.0857 H   0  0  0  0  0  0  0  0  0  0  0  0
  129.4774  137.7108  162.9159 H   0  0  0  0  0  0  0  0  0  0  0  0
  133.0076  139.2630  159.0635 H   0  0  0  0  0  0  0  0  0  0  0  0
  133.2128  139.0929  160.8372 H   0  0  0  0  0  0  0  0  0  0  0  0
  135.1003  137.8404  160.0148 H   0  0  0  0  0  0  0  0  0  0  0  0
  134.1719  137.1995  158.6195 H   0  0  0  0  0  0  0  0  0  0  0  0
  134.1391  136.3141  161.5068 H   0  0  0  0  0  0  0  0  0  0  0  0
  133.8118  135.3599  160.0297 H   0  0  0  0  0  0  0  0  0  0  0  0
  131.8953  136.6811  161.7778 H   0  0  0  0  0  0  0  0  0  0  0  0
  131.5661  135.6978  160.3230 H   0  0  0  0  0  0  0  0  0  0  0  0
  1  2  1  0
  1 30  1  0
  1 31  1  0
  1 32  1  0
  2  3  1  1
  2  4  1  0
  2 24  1  0
  4 23  1  0
  4  5  2  0
  5  6  1  0
  5 33  1  0
  6  7  2  0
  6 34  1  0
  7  8  1  0
  7 22  1  0
  8  9  1  0
  8 35  1  0
  9 21  1  0
  9 10  2  0
 10 11  1  0
 11 12  1  0
 11 20  2  0
 12 13  1  0
 12 36  1  0
 12 37  1  0
 13 18  1  0
 13 14  2  0
 14 15  1  0
 14 38  1  0
 15 16  2  0
 15 39  1  0
 16 17  1  0
 16 40  1  0
 17 18  2  0
 17 41  1  0
 18 19  1  0
 20 21  1  0
 20 42  1  0
 22 23  2  0
 22 43  1  0
 23 44  1  0
 24 25  1  0
 24 29  1  0
 24 26  1  0
 26 27  1  0
 26 45  1  0
 26 46  1  0
 27 28  1  0
 27 47  1  0
 27 48  1  0
 28 29  1  0
 28 49  1  0
 28 50  1  0
 29 51  1  0
 29 52  1  0
M  CHG  1  24   1
M  END
>  <DOCK_score>  (1) 
-44.049244

>  <SMILES>  (1) 
C[C@@H](c1ccc(Nc2nc(Cc3ccccc3Br)cs2)cc1)[NH+]1CCCC1

$$$$
