CCCC1=C(CO)[C@H](CNc2[nH]cc(C3=CCC=CC3)[nH+]2)C(c2ncccc2F)=CC1C
     RDKit          3D

 64 67  0  0  1  0  0  0  0  0999 V2000
  130.5443  131.9598  154.4841 C   0  0  0  0  0  0  0  0  0  0  0  0
  130.9813  132.1570  155.9370 C   0  0  0  0  0  0  0  0  0  0  0  0
  129.7490  132.3920  156.8128 C   0  0  0  0  0  0  0  0  0  0  0  0
  130.1795  132.5862  158.2440 C   0  0  0  0  0  0  0  0  0  0  0  0
  129.4563  133.3432  159.0101 C   0  0  0  0  0  0  0  0  0  0  0  0
  128.2251  133.9882  158.4276 C   0  0  0  0  0  0  0  0  0  0  0  0
  128.5691  135.2617  157.8784 O   0  0  0  0  0  0  0  0  0  0  0  0
  129.7892  133.6070  160.4475 C   0  0  2  0  0  0  0  0  0  0  0  0
  129.1613  132.9799  161.0805 H   0  0  0  0  0  0  0  0  0  0  0  0
  129.5094  135.0772  160.7654 C   0  0  0  0  0  0  0  0  0  0  0  0
  130.3344  135.9285  159.9046 N   0  0  0  0  0  0  0  0  0  0  0  0
  131.2432  136.8079  160.4674 C   0  0  0  0  0  0  0  0  0  0  0  0
  131.2116  137.2682  161.7480 N   0  0  0  0  0  0  0  0  0  0  0  0
  130.5540  137.0407  162.4239 H   0  0  0  0  0  0  0  0  0  0  0  0
  132.2838  138.1108  161.9083 C   0  0  0  0  0  0  0  0  0  0  0  0
  132.9359  138.1491  160.7173 C   0  0  0  0  0  0  0  0  0  0  0  0
  134.1508  138.9334  160.4153 C   0  0  0  0  0  0  0  0  0  0  0  0
  134.6670  138.8584  159.2076 C   0  0  0  0  0  0  0  0  0  0  0  0
  135.8935  139.6211  158.8041 C   0  0  0  0  0  0  0  0  0  0  0  0
  136.6844  140.0464  160.0040 C   0  0  0  0  0  0  0  0  0  0  0  0
  136.1784  140.1160  161.1967 C   0  0  0  0  0  0  0  0  0  0  0  0
  134.7498  139.7786  161.4993 C   0  0  0  0  0  0  0  0  0  0  0  0
  132.2720  137.3385  159.8532 N   0  0  0  0  0  0  0  0  0  0  0  0
  132.5196  137.1781  158.9290 H   0  0  0  0  0  0  0  0  0  0  0  0
  131.2301  133.3078  160.7343 C   0  0  0  0  0  0  0  0  0  0  0  0
  131.8515  133.8996  161.9367 C   0  0  0  0  0  0  0  0  0  0  0  0
  132.9032  134.7006  161.8090 N   0  0  0  0  0  0  0  0  0  0  0  0
  133.4821  135.2523  162.8556 C   0  0  0  0  0  0  0  0  0  0  0  0
  133.0203  135.0068  164.1362 C   0  0  0  0  0  0  0  0  0  0  0  0
  131.9277  134.1718  164.3184 C   0  0  0  0  0  0  0  0  0  0  0  0
  131.3322  133.6079  163.2007 C   0  0  0  0  0  0  0  0  0  0  0  0
  130.2662  132.7884  163.3315 F   0  0  0  0  0  0  0  0  0  0  0  0
  131.9631  132.5400  159.9576 C   0  0  0  0  0  0  0  0  0  0  0  0
  131.4231  131.8957  158.7161 C   0  0  1  0  0  0  0  0  0  0  0  0
  131.0999  130.4297  159.0118 C   0  0  0  0  0  0  0  0  0  0  0  0
  130.0178  132.8497  154.1391 H   0  0  0  0  0  0  0  0  0  0  0  0
  131.4221  131.7924  153.8601 H   0  0  0  0  0  0  0  0  0  0  0  0
  129.8815  131.0970  154.4179 H   0  0  0  0  0  0  0  0  0  0  0  0
  131.6440  133.0198  156.0032 H   0  0  0  0  0  0  0  0  0  0  0  0
  131.5078  131.2670  156.2819 H   0  0  0  0  0  0  0  0  0  0  0  0
  129.0862  131.5292  156.7466 H   0  0  0  0  0  0  0  0  0  0  0  0
  129.2225  133.2820  156.4679 H   0  0  0  0  0  0  0  0  0  0  0  0
  127.8185  133.3513  157.6419 H   0  0  0  0  0  0  0  0  0  0  0  0
  127.4787  134.1199  159.2110 H   0  0  0  0  0  0  0  0  0  0  0  0
  129.2302  135.2206  157.1740 H   0  0  0  0  0  0  0  0  0  0  0  0
  128.4559  135.2932  160.5877 H   0  0  0  0  0  0  0  0  0  0  0  0
  129.7497  135.2753  161.8100 H   0  0  0  0  0  0  0  0  0  0  0  0
  130.2437  135.8760  158.9403 H   0  0  0  0  0  0  0  0  0  0  0  0
  132.5541  138.6443  162.8074 H   0  0  0  0  0  0  0  0  0  0  0  0
  134.1860  138.2256  158.4765 H   0  0  0  0  0  0  0  0  0  0  0  0
  135.5989  140.5051  158.2386 H   0  0  0  0  0  0  0  0  0  0  0  0
  136.5147  138.9847  158.1739 H   0  0  0  0  0  0  0  0  0  0  0  0
  137.7237  140.3076  159.8695 H   0  0  0  0  0  0  0  0  0  0  0  0
  136.8161  140.4319  162.0090 H   0  0  0  0  0  0  0  0  0  0  0  0
  134.1766  140.7011  161.5909 H   0  0  0  0  0  0  0  0  0  0  0  0
  134.7032  139.2350  162.4429 H   0  0  0  0  0  0  0  0  0  0  0  0
  134.3326  135.9021  162.7121 H   0  0  0  0  0  0  0  0  0  0  0  0
  133.5061  135.4618  164.9868 H   0  0  0  0  0  0  0  0  0  0  0  0
  131.5497  133.9653  165.3087 H   0  0  0  0  0  0  0  0  0  0  0  0
  132.9951  132.3669  160.2247 H   0  0  0  0  0  0  0  0  0  0  0  0
  132.1782  131.9436  157.9314 H   0  0  0  0  0  0  0  0  0  0  0  0
  130.3449  130.3753  159.7962 H   0  0  0  0  0  0  0  0  0  0  0  0
  130.7205  129.9519  158.1086 H   0  0  0  0  0  0  0  0  0  0  0  0
  132.0039  129.9177  159.3415 H   0  0  0  0  0  0  0  0  0  0  0  0
  1  2  1  0
  1 36  1  0
  1 37  1  0
  1 38  1  0
  2  3  1  0
  2 39  1  0
  2 40  1  0
  3  4  1  0
  3 41  1  0
  3 42  1  0
  4 34  1  0
  4  5  2  0
  5  6  1  0
  5  8  1  0
  6  7  1  0
  6 43  1  0
  6 44  1  0
  7 45  1  0
  8  9  1  1
  8 10  1  0
  8 25  1  0
 10 11  1  0
 10 46  1  0
 10 47  1  0
 11 48  1  0
 12 11  1  0
 12 23  2  0
 12 13  1  0
 13 14  1  0
 13 15  1  0
 15 16  2  0
 15 49  1  0
 16 17  1  0
 16 23  1  0
 17 22  1  0
 17 18  2  0
 18 19  1  0
 18 50  1  0
 19 20  1  0
 19 51  1  0
 19 52  1  0
 20 21  2  0
 20 53  1  0
 21 22  1  0
 21 54  1  0
 22 55  1  0
 22 56  1  0
 23 24  1  0
 25 26  1  0
 25 33  2  0
 26 31  1  0
 26 27  2  0
 27 28  1  0
 28 29  2  0
 28 57  1  0
 29 30  1  0
 29 58  1  0
 30 31  2  0
 30 59  1  0
 31 32  1  0
 33 34  1  0
 33 60  1  0
 34 35  1  0
 34 61  1  6
 35 62  1  0
 35 63  1  0
 35 64  1  0
M  CHG  1  23   1
M  END
>  <DOCK_score>  (1) 
-56.27639

>  <SMILES>  (1) 
CCCC1=C(CO)[C@H](CNc2[nH]cc(C3=CCC=CC3)[nH+]2)C(c2ncccc2F)=CC1C

$$$$
