Oc1ccc2c(c1)C([NH+]1CCC[C@@H]1CCCF)c1cc(O)ccc1-2
     RDKit          3D

 47 50  0  0  1  0  0  0  0  0999 V2000
  131.6764  130.9711  155.7241 O   0  0  0  0  0  0  0  0  0  0  0  0
  130.7027  131.3116  156.6086 C   0  0  0  0  0  0  0  0  0  0  0  0
  130.1298  130.3404  157.4183 C   0  0  0  0  0  0  0  0  0  0  0  0
  129.1416  130.6813  158.3167 C   0  0  0  0  0  0  0  0  0  0  0  0
  128.7133  132.0071  158.4150 C   0  0  0  0  0  0  0  0  0  0  0  0
  129.2927  132.9760  157.5995 C   0  0  0  0  0  0  0  0  0  0  0  0
  130.2805  132.6312  156.7030 C   0  0  0  0  0  0  0  0  0  0  0  0
  128.6373  134.2958  157.9252 C   0  0  0  0  0  0  0  0  0  0  0  0
  129.6395  135.2503  158.4175 N   0  0  1  0  0  0  0  0  0  0  0  0
  130.4932  135.1637  157.8870 H   0  0  0  0  0  0  0  0  0  0  0  0
  129.1182  136.6312  158.3231 C   0  0  0  0  0  0  0  0  0  0  0  0
  129.6604  137.4030  159.5403 C   0  0  0  0  0  0  0  0  0  0  0  0
  130.4881  136.3693  160.3379 C   0  0  0  0  0  0  0  0  0  0  0  0
  129.9051  135.0156  159.8600 C   0  0  2  0  0  0  0  0  0  0  0  0
  128.9801  134.7868  160.3893 H   0  0  0  0  0  0  0  0  0  0  0  0
  130.9270  133.8920  160.0450 C   0  0  0  0  0  0  0  0  0  0  0  0
  131.1799  133.6735  161.5379 C   0  0  0  0  0  0  0  0  0  0  0  0
  129.8689  133.2889  162.2264 C   0  0  0  0  0  0  0  0  0  0  0  0
  129.3731  132.1096  161.6599 F   0  0  0  0  0  0  0  0  0  0  0  0
  127.6242  134.0030  159.0048 C   0  0  0  0  0  0  0  0  0  0  0  0
  126.7390  134.8106  159.6849 C   0  0  0  0  0  0  0  0  0  0  0  0
  125.9030  134.2655  160.6505 C   0  0  0  0  0  0  0  0  0  0  0  0
  125.0295  135.0618  161.3210 O   0  0  0  0  0  0  0  0  0  0  0  0
  125.9593  132.9069  160.9299 C   0  0  0  0  0  0  0  0  0  0  0  0
  126.8440  132.0958  160.2523 C   0  0  0  0  0  0  0  0  0  0  0  0
  127.6864  132.6391  159.2799 C   0  0  0  0  0  0  0  0  0  0  0  0
  132.0137  131.7142  155.2051 H   0  0  0  0  0  0  0  0  0  0  0  0
  130.4595  129.3147  157.3443 H   0  0  0  0  0  0  0  0  0  0  0  0
  128.6983  129.9230  158.9451 H   0  0  0  0  0  0  0  0  0  0  0  0
  130.7259  133.3871  156.0730 H   0  0  0  0  0  0  0  0  0  0  0  0
  128.1405  134.6962  157.0416 H   0  0  0  0  0  0  0  0  0  0  0  0
  128.0285  136.6192  158.3463 H   0  0  0  0  0  0  0  0  0  0  0  0
  129.4674  137.0978  157.4019 H   0  0  0  0  0  0  0  0  0  0  0  0
  128.8368  137.7782  160.1479 H   0  0  0  0  0  0  0  0  0  0  0  0
  130.2962  138.2260  159.2140 H   0  0  0  0  0  0  0  0  0  0  0  0
  131.5458  136.4444  160.0854 H   0  0  0  0  0  0  0  0  0  0  0  0
  130.3363  136.4978  161.4096 H   0  0  0  0  0  0  0  0  0  0  0  0
  130.5407  132.9733  159.6036 H   0  0  0  0  0  0  0  0  0  0  0  0
  131.8610  134.1660  159.5545 H   0  0  0  0  0  0  0  0  0  0  0  0
  131.9079  132.8730  161.6698 H   0  0  0  0  0  0  0  0  0  0  0  0
  131.5664  134.5921  161.9794 H   0  0  0  0  0  0  0  0  0  0  0  0
  130.0492  133.1331  163.2901 H   0  0  0  0  0  0  0  0  0  0  0  0
  129.1408  134.0894  162.0947 H   0  0  0  0  0  0  0  0  0  0  0  0
  126.6953  135.8675  159.4670 H   0  0  0  0  0  0  0  0  0  0  0  0
  125.0629  135.9917  161.0575 H   0  0  0  0  0  0  0  0  0  0  0  0
  125.3087  132.4845  161.6813 H   0  0  0  0  0  0  0  0  0  0  0  0
  126.8847  131.0392  160.4724 H   0  0  0  0  0  0  0  0  0  0  0  0
  1  2  1  0
  1 27  1  0
  2  7  2  0
  2  3  1  0
  3  4  2  0
  3 28  1  0
  4  5  1  0
  4 29  1  0
  5 26  1  0
  5  6  2  0
  6  7  1  0
  6  8  1  0
  7 30  1  0
  8  9  1  0
  8 20  1  0
  8 31  1  0
  9 10  1  6
  9 14  1  0
  9 11  1  0
 11 12  1  0
 11 32  1  0
 11 33  1  0
 12 13  1  0
 12 34  1  0
 12 35  1  0
 13 14  1  0
 13 36  1  0
 13 37  1  0
 14 15  1  1
 14 16  1  0
 16 17  1  0
 16 38  1  0
 16 39  1  0
 17 18  1  0
 17 40  1  0
 17 41  1  0
 18 19  1  0
 18 42  1  0
 18 43  1  0
 20 26  2  0
 20 21  1  0
 21 22  2  0
 21 44  1  0
 22 23  1  0
 22 24  1  0
 23 45  1  0
 24 25  2  0
 24 46  1  0
 25 26  1  0
 25 47  1  0
M  CHG  1   9   1
M  END
>  <DOCK_score>  (1) 
-43.065098

>  <SMILES>  (1) 
Oc1ccc2c(c1)C([NH+]1CCC[C@@H]1CCCF)c1cc(O)ccc1-2

$$$$
