Cc1cccc(N2CC[NH+](C(c3ccccc3)c3ccccc3)CC2)c1CSCC1CC=CC1
     RDKit          3D

 71 75  0  0  1  0  0  0  0  0999 V2000
  136.1327  140.5765  162.8104 C   0  0  0  0  0  0  0  0  0  0  0  0
  135.4911  139.9348  161.6073 C   0  0  0  0  0  0  0  0  0  0  0  0
  135.9073  140.2820  160.3349 C   0  0  0  0  0  0  0  0  0  0  0  0
  135.3217  139.6951  159.2284 C   0  0  0  0  0  0  0  0  0  0  0  0
  134.3183  138.7598  159.3905 C   0  0  0  0  0  0  0  0  0  0  0  0
  133.8979  138.4089  160.6668 C   0  0  0  0  0  0  0  0  0  0  0  0
  132.8832  137.4637  160.8344 N   0  0  0  0  0  0  0  0  0  0  0  0
  133.2984  136.1493  160.3244 C   0  0  0  0  0  0  0  0  0  0  0  0
  132.1848  135.1313  160.5801 C   0  0  0  0  0  0  0  0  0  0  0  0
  130.9554  135.5708  159.9072 N   0  0  0  0  0  0  0  0  0  0  0  0
  131.1263  135.6550  158.9163 H   0  0  0  0  0  0  0  0  0  0  0  0
  129.8917  134.5843  160.1378 C   0  0  0  0  0  0  0  0  0  0  0  0
  128.6303  135.0350  159.4476 C   0  0  0  0  0  0  0  0  0  0  0  0
  127.3967  134.6828  159.9628 C   0  0  0  0  0  0  0  0  0  0  0  0
  126.2397  135.1003  159.3322 C   0  0  0  0  0  0  0  0  0  0  0  0
  126.3159  135.8610  158.1805 C   0  0  0  0  0  0  0  0  0  0  0  0
  127.5494  136.2088  157.6624 C   0  0  0  0  0  0  0  0  0  0  0  0
  128.7066  135.7957  158.2959 C   0  0  0  0  0  0  0  0  0  0  0  0
  130.3171  133.2484  159.5851 C   0  0  0  0  0  0  0  0  0  0  0  0
  129.8617  132.0816  160.1702 C   0  0  0  0  0  0  0  0  0  0  0  0
  130.2480  130.8561  159.6604 C   0  0  0  0  0  0  0  0  0  0  0  0
  131.0980  130.7974  158.5718 C   0  0  0  0  0  0  0  0  0  0  0  0
  131.5576  131.9642  157.9899 C   0  0  0  0  0  0  0  0  0  0  0  0
  131.1671  133.1896  158.4966 C   0  0  0  0  0  0  0  0  0  0  0  0
  130.5398  136.8732  160.4444 C   0  0  0  0  0  0  0  0  0  0  0  0
  131.6397  137.9056  160.1875 C   0  0  0  0  0  0  0  0  0  0  0  0
  134.4922  138.9966  161.7767 C   0  0  0  0  0  0  0  0  0  0  0  0
  134.0432  138.6146  163.1636 C   0  0  0  0  0  0  0  0  0  0  0  0
  135.0372  137.2183  163.7578 S   0  0  0  0  0  0  0  0  0  0  0  0
  134.8152  137.2956  165.5566 C   0  0  0  0  0  0  0  0  0  0  0  0
  135.6047  136.1637  166.2170 C   0  0  0  0  0  0  0  0  0  0  0  0
  136.0331  136.5494  167.6519 C   0  0  0  0  0  0  0  0  0  0  0  0
  137.4122  135.9536  167.8141 C   0  0  0  0  0  0  0  0  0  0  0  0
  137.9265  135.6372  166.6571 C   0  0  0  0  0  0  0  0  0  0  0  0
  136.9763  135.9690  165.5301 C   0  0  0  0  0  0  0  0  0  0  0  0
  135.5848  141.4809  163.0753 H   0  0  0  0  0  0  0  0  0  0  0  0
  137.1663  140.8328  162.5777 H   0  0  0  0  0  0  0  0  0  0  0  0
  136.1110  139.8801  163.6487 H   0  0  0  0  0  0  0  0  0  0  0  0
  136.6919  141.0127  160.2054 H   0  0  0  0  0  0  0  0  0  0  0  0
  135.6488  139.9689  158.2361 H   0  0  0  0  0  0  0  0  0  0  0  0
  133.8616  138.3017  158.5257 H   0  0  0  0  0  0  0  0  0  0  0  0
  133.4891  136.2184  159.2533 H   0  0  0  0  0  0  0  0  0  0  0  0
  134.2067  135.8310  160.8359 H   0  0  0  0  0  0  0  0  0  0  0  0
  132.0039  135.0524  161.6520 H   0  0  0  0  0  0  0  0  0  0  0  0
  132.4850  134.1589  160.1897 H   0  0  0  0  0  0  0  0  0  0  0  0
  129.7073  134.4924  161.2082 H   0  0  0  0  0  0  0  0  0  0  0  0
  127.3372  134.0847  160.8601 H   0  0  0  0  0  0  0  0  0  0  0  0
  125.2760  134.8283  159.7368 H   0  0  0  0  0  0  0  0  0  0  0  0
  125.4119  136.1833  157.6854 H   0  0  0  0  0  0  0  0  0  0  0  0
  127.6092  136.8028  156.7623 H   0  0  0  0  0  0  0  0  0  0  0  0
  129.6703  136.0671  157.8908 H   0  0  0  0  0  0  0  0  0  0  0  0
  129.2012  132.1276  161.0235 H   0  0  0  0  0  0  0  0  0  0  0  0
  129.8892  129.9447  160.1152 H   0  0  0  0  0  0  0  0  0  0  0  0
  131.4033  129.8400  158.1761 H   0  0  0  0  0  0  0  0  0  0  0  0
  132.2219  131.9182  157.1397 H   0  0  0  0  0  0  0  0  0  0  0  0
  131.5264  134.1011  158.0423 H   0  0  0  0  0  0  0  0  0  0  0  0
  130.3673  136.7854  161.5170 H   0  0  0  0  0  0  0  0  0  0  0  0
  129.6204  137.1920  159.9535 H   0  0  0  0  0  0  0  0  0  0  0  0
  131.3380  138.8687  160.5992 H   0  0  0  0  0  0  0  0  0  0  0  0
  131.8030  138.0036  159.1142 H   0  0  0  0  0  0  0  0  0  0  0  0
  134.1728  139.4642  163.8343 H   0  0  0  0  0  0  0  0  0  0  0  0
  132.9920  138.3280  163.1393 H   0  0  0  0  0  0  0  0  0  0  0  0
  135.1772  138.2549  165.9265 H   0  0  0  0  0  0  0  0  0  0  0  0
  133.7574  137.1893  165.7970 H   0  0  0  0  0  0  0  0  0  0  0  0
  135.0311  135.2367  166.2151 H   0  0  0  0  0  0  0  0  0  0  0  0
  136.0730  137.6335  167.7578 H   0  0  0  0  0  0  0  0  0  0  0  0
  135.3461  136.1208  168.3815 H   0  0  0  0  0  0  0  0  0  0  0  0
  137.9072  135.8084  168.7631 H   0  0  0  0  0  0  0  0  0  0  0  0
  138.9030  135.1957  166.5227 H   0  0  0  0  0  0  0  0  0  0  0  0
  136.9305  135.1459  164.8171 H   0  0  0  0  0  0  0  0  0  0  0  0
  137.2850  136.8878  165.0313 H   0  0  0  0  0  0  0  0  0  0  0  0
  1  2  1  0
  1 36  1  0
  1 37  1  0
  1 38  1  0
  2 27  2  0
  2  3  1  0
  3  4  2  0
  3 39  1  0
  4  5  1  0
  4 40  1  0
  5  6  2  0
  5 41  1  0
  6  7  1  0
  6 27  1  0
  7 26  1  0
  7  8  1  0
  8  9  1  0
  8 42  1  0
  8 43  1  0
  9 10  1  0
  9 44  1  0
  9 45  1  0
 10 11  1  0
 10 12  1  0
 10 25  1  0
 12 13  1  0
 12 19  1  0
 12 46  1  0
 13 18  1  0
 13 14  2  0
 14 15  1  0
 14 47  1  0
 15 16  2  0
 15 48  1  0
 16 17  1  0
 16 49  1  0
 17 18  2  0
 17 50  1  0
 18 51  1  0
 19 24  1  0
 19 20  2  0
 20 21  1  0
 20 52  1  0
 21 22  2  0
 21 53  1  0
 22 23  1  0
 22 54  1  0
 23 24  2  0
 23 55  1  0
 24 56  1  0
 25 26  1  0
 25 57  1  0
 25 58  1  0
 26 59  1  0
 26 60  1  0
 27 28  1  0
 28 29  1  0
 28 61  1  0
 28 62  1  0
 29 30  1  0
 30 31  1  0
 30 63  1  0
 30 64  1  0
 31 35  1  0
 31 32  1  0
 31 65  1  0
 32 33  1  0
 32 66  1  0
 32 67  1  0
 33 34  2  0
 33 68  1  0
 34 35  1  0
 34 69  1  0
 35 70  1  0
 35 71  1  0
M  CHG  1  10   1
M  END
>  <DOCK_score>  (1) 
-57.029022

>  <SMILES>  (1) 
Cc1cccc(N2CC[NH+](C(c3ccccc3)c3ccccc3)CC2)c1CSCC1CC=CC1

$$$$
