CC(C)C[C@H](Nc1[nH]cc(-c2ccc(N)cc2)[nH+]1)c1ccccc1
     RDKit          3D

 49 51  0  0  1  0  0  0  0  0999 V2000
  131.1409  138.1237  161.6551 C   0  0  0  0  0  0  0  0  0  0  0  0
  130.7762  136.7542  161.0786 C   0  0  0  0  0  0  0  0  0  0  0  0
  130.6097  135.7485  162.2195 C   0  0  0  0  0  0  0  0  0  0  0  0
  129.4645  136.8621  160.2984 C   0  0  0  0  0  0  0  0  0  0  0  0
  129.0998  135.4926  159.7220 C   0  0  2  0  0  0  0  0  0  0  0  0
  128.9812  134.7761  160.5348 H   0  0  0  0  0  0  0  0  0  0  0  0
  130.1660  135.0408  158.8245 N   0  0  0  0  0  0  0  0  0  0  0  0
  130.0582  133.8197  158.1811 C   0  0  0  0  0  0  0  0  0  0  0  0
  129.3969  132.7294  158.6558 N   0  0  0  0  0  0  0  0  0  0  0  0
  128.9209  132.6680  159.4987 H   0  0  0  0  0  0  0  0  0  0  0  0
  129.5286  131.7308  157.7201 C   0  0  0  0  0  0  0  0  0  0  0  0
  130.2656  132.2401  156.7025 C   0  0  0  0  0  0  0  0  0  0  0  0
  130.6620  131.5215  155.4666 C   0  0  0  0  0  0  0  0  0  0  0  0
  130.2579  131.9993  154.2210 C   0  0  0  0  0  0  0  0  0  0  0  0
  130.6324  131.3328  153.0735 C   0  0  0  0  0  0  0  0  0  0  0  0
  131.4024  130.1789  153.1587 C   0  0  0  0  0  0  0  0  0  0  0  0
  131.7765  129.5025  151.9950 N   0  0  0  0  0  0  0  0  0  0  0  0
  131.8021  129.6976  154.3998 C   0  0  0  0  0  0  0  0  0  0  0  0
  131.4347  130.3641  155.5497 C   0  0  0  0  0  0  0  0  0  0  0  0
  130.5715  133.5252  157.0114 N   0  0  0  0  0  0  0  0  0  0  0  0
  131.0892  134.1291  156.4563 H   0  0  0  0  0  0  0  0  0  0  0  0
  127.8078  135.5988  158.9535 C   0  0  0  0  0  0  0  0  0  0  0  0
  126.6021  135.3891  159.5962 C   0  0  0  0  0  0  0  0  0  0  0  0
  125.4170  135.4863  158.8912 C   0  0  0  0  0  0  0  0  0  0  0  0
  125.4377  135.7917  157.5431 C   0  0  0  0  0  0  0  0  0  0  0  0
  126.6436  136.0000  156.9002 C   0  0  0  0  0  0  0  0  0  0  0  0
  127.8286  135.9034  157.6053 C   0  0  0  0  0  0  0  0  0  0  0  0
  130.3475  138.4597  162.3227 H   0  0  0  0  0  0  0  0  0  0  0  0
  132.0753  138.0468  162.2108 H   0  0  0  0  0  0  0  0  0  0  0  0
  131.2595  138.8401  160.8422 H   0  0  0  0  0  0  0  0  0  0  0  0
  131.5695  136.4180  160.4109 H   0  0  0  0  0  0  0  0  0  0  0  0
  130.4500  134.7528  161.8058 H   0  0  0  0  0  0  0  0  0  0  0  0
  131.5087  135.7460  162.8358 H   0  0  0  0  0  0  0  0  0  0  0  0
  129.7516  136.0302  162.8299 H   0  0  0  0  0  0  0  0  0  0  0  0
  129.5831  137.5785  159.4855 H   0  0  0  0  0  0  0  0  0  0  0  0
  128.6712  137.1982  160.9660 H   0  0  0  0  0  0  0  0  0  0  0  0
  130.9475  135.5973  158.6811 H   0  0  0  0  0  0  0  0  0  0  0  0
  129.1226  130.7319  157.7835 H   0  0  0  0  0  0  0  0  0  0  0  0
  129.6552  132.8930  154.1547 H   0  0  0  0  0  0  0  0  0  0  0  0
  130.3229  131.7048  152.1080 H   0  0  0  0  0  0  0  0  0  0  0  0
  132.3144  128.6975  152.0535 H   0  0  0  0  0  0  0  0  0  0  0  0
  131.4982  129.8379  151.1283 H   0  0  0  0  0  0  0  0  0  0  0  0
  132.4004  128.8008  154.4635 H   0  0  0  0  0  0  0  0  0  0  0  0
  131.7456  129.9899  156.5139 H   0  0  0  0  0  0  0  0  0  0  0  0
  126.5859  135.1508  160.6494 H   0  0  0  0  0  0  0  0  0  0  0  0
  124.4747  135.3279  159.3946 H   0  0  0  0  0  0  0  0  0  0  0  0
  124.5119  135.8672  156.9924 H   0  0  0  0  0  0  0  0  0  0  0  0
  126.6597  136.2380  155.8468 H   0  0  0  0  0  0  0  0  0  0  0  0
  128.7708  136.0654  157.1028 H   0  0  0  0  0  0  0  0  0  0  0  0
  1  2  1  0
  1 28  1  0
  1 29  1  0
  1 30  1  0
  2  3  1  0
  2  4  1  0
  2 31  1  0
  3 32  1  0
  3 33  1  0
  3 34  1  0
  4  5  1  0
  4 35  1  0
  4 36  1  0
  5  6  1  1
  5  7  1  0
  5 22  1  0
  7 37  1  0
  8  7  1  0
  8 20  2  0
  8  9  1  0
  9 10  1  0
  9 11  1  0
 11 12  2  0
 11 38  1  0
 12 13  1  0
 12 20  1  0
 13 19  1  0
 13 14  2  0
 14 15  1  0
 14 39  1  0
 15 16  2  0
 15 40  1  0
 16 17  1  0
 16 18  1  0
 17 41  1  0
 17 42  1  0
 18 19  2  0
 18 43  1  0
 19 44  1  0
 20 21  1  0
 22 27  1  0
 22 23  2  0
 23 24  1  0
 23 45  1  0
 24 25  2  0
 24 46  1  0
 25 26  1  0
 25 47  1  0
 26 27  2  0
 26 48  1  0
 27 49  1  0
M  CHG  1  20   1
M  END
>  <DOCK_score>  (1) 
-57.142391

>  <SMILES>  (1) 
CC(C)C[C@H](Nc1[nH]cc(-c2ccc(N)cc2)[nH+]1)c1ccccc1

$$$$
