CCc1ccc(-c2c[nH]c(N[C@H](c3ccccc3)c3cc4c(ccc5cccnc54)o3)[nH+]2)cc1
     RDKit          3D

 59 64  0  0  1  0  0  0  0  0999 V2000
  130.6023  128.4756  151.6033 C   0  0  0  0  0  0  0  0  0  0  0  0
  131.6797  129.4974  151.9719 C   0  0  0  0  0  0  0  0  0  0  0  0
  131.2847  130.2085  153.2405 C   0  0  0  0  0  0  0  0  0  0  0  0
  131.6753  129.6996  154.4655 C   0  0  0  0  0  0  0  0  0  0  0  0
  131.3214  130.3495  155.6305 C   0  0  0  0  0  0  0  0  0  0  0  0
  130.5591  131.5148  155.5711 C   0  0  0  0  0  0  0  0  0  0  0  0
  130.1708  132.2148  156.8199 C   0  0  0  0  0  0  0  0  0  0  0  0
  129.4357  131.6919  157.8324 C   0  0  0  0  0  0  0  0  0  0  0  0
  129.3128  132.6745  158.7845 N   0  0  0  0  0  0  0  0  0  0  0  0
  128.8397  132.6011  159.6281 H   0  0  0  0  0  0  0  0  0  0  0  0
  129.9772  133.7700  158.3257 C   0  0  0  0  0  0  0  0  0  0  0  0
  130.0936  134.9792  158.9895 N   0  0  0  0  0  0  0  0  0  0  0  0
  129.0303  135.4235  159.8941 C   0  0  2  0  0  0  0  0  0  0  0  0
  128.9063  134.6944  160.6948 H   0  0  0  0  0  0  0  0  0  0  0  0
  127.7394  135.5520  159.1273 C   0  0  0  0  0  0  0  0  0  0  0  0
  126.5320  135.3373  159.7654 C   0  0  0  0  0  0  0  0  0  0  0  0
  125.3478  135.4591  159.0629 C   0  0  0  0  0  0  0  0  0  0  0  0
  125.3711  135.7874  157.7203 C   0  0  0  0  0  0  0  0  0  0  0  0
  126.5787  135.9968  157.0809 C   0  0  0  0  0  0  0  0  0  0  0  0
  127.7629  135.8789  157.7844 C   0  0  0  0  0  0  0  0  0  0  0  0
  129.3990  136.7602  160.4845 C   0  0  0  0  0  0  0  0  0  0  0  0
  129.0222  137.1980  161.6971 C   0  0  0  0  0  0  0  0  0  0  0  0
  129.6060  138.5299  161.8467 C   0  0  0  0  0  0  0  0  0  0  0  0
  130.2997  138.7787  160.6589 C   0  0  0  0  0  0  0  0  0  0  0  0
  130.9746  139.9929  160.4874 C   0  0  0  0  0  0  0  0  0  0  0  0
  130.9756  140.9467  161.4514 C   0  0  0  0  0  0  0  0  0  0  0  0
  130.2950  140.7524  162.6674 C   0  0  0  0  0  0  0  0  0  0  0  0
  130.2926  141.7370  163.6708 C   0  0  0  0  0  0  0  0  0  0  0  0
  129.6104  141.4797  164.8274 C   0  0  0  0  0  0  0  0  0  0  0  0
  128.9438  140.2687  164.9847 C   0  0  0  0  0  0  0  0  0  0  0  0
  128.9491  139.3524  164.0443 N   0  0  0  0  0  0  0  0  0  0  0  0
  129.5948  139.5421  162.8953 C   0  0  0  0  0  0  0  0  0  0  0  0
  130.1483  137.6931  159.8737 O   0  0  0  0  0  0  0  0  0  0  0  0
  130.4935  133.4895  157.1540 N   0  0  0  0  0  0  0  0  0  0  0  0
  131.0201  134.0971  156.6114 H   0  0  0  0  0  0  0  0  0  0  0  0
  130.1633  132.0202  154.3340 C   0  0  0  0  0  0  0  0  0  0  0  0
  130.5278  131.3651  153.1753 C   0  0  0  0  0  0  0  0  0  0  0  0
  130.4998  127.7495  152.4097 H   0  0  0  0  0  0  0  0  0  0  0  0
  129.6519  128.9875  151.4523 H   0  0  0  0  0  0  0  0  0  0  0  0
  130.8879  127.9614  150.6856 H   0  0  0  0  0  0  0  0  0  0  0  0
  132.6298  128.9861  152.1224 H   0  0  0  0  0  0  0  0  0  0  0  0
  131.7819  130.2241  151.1649 H   0  0  0  0  0  0  0  0  0  0  0  0
  132.2620  128.7940  154.5105 H   0  0  0  0  0  0  0  0  0  0  0  0
  131.6310  129.9537  156.5864 H   0  0  0  0  0  0  0  0  0  0  0  0
  129.0250  130.6942  157.8808 H   0  0  0  0  0  0  0  0  0  0  0  0
  130.8792  135.5322  158.8559 H   0  0  0  0  0  0  0  0  0  0  0  0
  126.5139  135.0776  160.8135 H   0  0  0  0  0  0  0  0  0  0  0  0
  124.4043  135.2951  159.5624 H   0  0  0  0  0  0  0  0  0  0  0  0
  124.4460  135.8798  157.1708 H   0  0  0  0  0  0  0  0  0  0  0  0
  126.5971  136.2528  156.0319 H   0  0  0  0  0  0  0  0  0  0  0  0
  128.7062  136.0425  157.2849 H   0  0  0  0  0  0  0  0  0  0  0  0
  128.4125  136.6719  162.4169 H   0  0  0  0  0  0  0  0  0  0  0  0
  131.5075  140.1744  159.5657 H   0  0  0  0  0  0  0  0  0  0  0  0
  131.5081  141.8711  161.2830 H   0  0  0  0  0  0  0  0  0  0  0  0
  130.8159  142.6715  163.5319 H   0  0  0  0  0  0  0  0  0  0  0  0
  129.5887  142.2156  165.6176 H   0  0  0  0  0  0  0  0  0  0  0  0
  128.4088  140.0776  165.9032 H   0  0  0  0  0  0  0  0  0  0  0  0
  129.5723  132.9227  154.2822 H   0  0  0  0  0  0  0  0  0  0  0  0
  130.2214  131.7556  152.2161 H   0  0  0  0  0  0  0  0  0  0  0  0
  1  2  1  0
  1 38  1  0
  1 39  1  0
  1 40  1  0
  2  3  1  0
  2 41  1  0
  2 42  1  0
  3 37  2  0
  3  4  1  0
  4  5  2  0
  4 43  1  0
  5  6  1  0
  5 44  1  0
  6  7  1  0
  6 36  2  0
  7 34  1  0
  7  8  2  0
  8  9  1  0
  8 45  1  0
  9 10  1  0
  9 11  1  0
 11 12  1  0
 11 34  2  0
 12 13  1  0
 12 46  1  0
 13 14  1  1
 13 15  1  0
 13 21  1  0
 15 20  1  0
 15 16  2  0
 16 17  1  0
 16 47  1  0
 17 18  2  0
 17 48  1  0
 18 19  1  0
 18 49  1  0
 19 20  2  0
 19 50  1  0
 20 51  1  0
 21 33  1  0
 21 22  2  0
 22 23  1  0
 22 52  1  0
 23 32  2  0
 23 24  1  0
 24 25  2  0
 24 33  1  0
 25 26  1  0
 25 53  1  0
 26 27  2  0
 26 54  1  0
 27 32  1  0
 27 28  1  0
 28 29  2  0
 28 55  1  0
 29 30  1  0
 29 56  1  0
 30 31  2  0
 30 57  1  0
 31 32  1  0
 34 35  1  0
 36 37  1  0
 36 58  1  0
 37 59  1  0
M  CHG  1  34   1
M  END
>  <DOCK_score>  (1) 
-63.824333

>  <SMILES>  (1) 
CCc1ccc(-c2c[nH]c(N[C@H](c3ccccc3)c3cc4c(ccc5cccnc54)o3)[nH+]2)cc1

$$$$
