CC[C@@H]1CCC(Nc2ccc(-c3n[nH]cc3C[NH2+]CC3=CCCC3)o2)C1
     RDKit          3D

 57 60  0  0  1  0  0  0  0  0999 V2000
  125.5222  140.9055  164.9848 C   0  0  0  0  0  0  0  0  0  0  0  0
  126.2858  139.7439  165.6238 C   0  0  0  0  0  0  0  0  0  0  0  0
  125.9546  138.4468  164.8828 C   0  0  2  0  0  0  0  0  0  0  0  0
  124.8856  138.2405  164.9361 H   0  0  0  0  0  0  0  0  0  0  0  0
  126.7649  137.2632  165.4671 C   0  0  0  0  0  0  0  0  0  0  0  0
  126.7909  136.2539  164.2926 C   0  0  0  0  0  0  0  0  0  0  0  0
  126.9480  137.1380  163.0370 C   0  0  1  0  0  0  0  0  0  0  0  0
  126.1642  136.5831  161.9306 N   0  0  0  0  0  0  0  0  0  0  0  0
  126.7415  135.6637  161.0625 C   0  0  0  0  0  0  0  0  0  0  0  0
  126.0858  134.6749  160.4051 C   0  0  0  0  0  0  0  0  0  0  0  0
  127.0454  133.9844  159.6386 C   0  0  0  0  0  0  0  0  0  0  0  0
  128.2412  134.5883  159.8679 C   0  0  0  0  0  0  0  0  0  0  0  0
  129.5361  134.1983  159.2727 C   0  0  0  0  0  0  0  0  0  0  0  0
  129.7336  133.2093  158.4233 N   0  0  0  0  0  0  0  0  0  0  0  0
  131.0970  133.1764  158.1039 N   0  0  0  0  0  0  0  0  0  0  0  0
  131.5248  132.5494  157.5001 H   0  0  0  0  0  0  0  0  0  0  0  0
  131.7128  134.1692  158.7818 C   0  0  0  0  0  0  0  0  0  0  0  0
  130.7798  134.8217  159.5074 C   0  0  0  0  0  0  0  0  0  0  0  0
  131.0238  136.0033  160.4103 C   0  0  0  0  0  0  0  0  0  0  0  0
  130.8729  137.2461  159.6421 N   0  0  0  0  0  0  0  0  0  0  0  0
  131.5406  137.2573  158.8857 H   0  0  0  0  0  0  0  0  0  0  0  0
  129.9380  137.2977  159.2661 H   0  0  0  0  0  0  0  0  0  0  0  0
  131.1107  138.3979  160.5223 C   0  0  0  0  0  0  0  0  0  0  0  0
  132.5070  138.3211  161.0841 C   0  0  0  0  0  0  0  0  0  0  0  0
  132.7880  138.2514  162.3569 C   0  0  0  0  0  0  0  0  0  0  0  0
  134.2807  138.1838  162.5816 C   0  0  0  0  0  0  0  0  0  0  0  0
  134.8708  137.8107  161.2019 C   0  0  0  0  0  0  0  0  0  0  0  0
  133.7658  138.3211  160.2483 C   0  0  0  0  0  0  0  0  0  0  0  0
  128.0421  135.6083  160.7289 O   0  0  0  0  0  0  0  0  0  0  0  0
  126.4154  138.5318  163.4131 C   0  0  0  0  0  0  0  0  0  0  0  0
  124.4509  140.7144  165.0479 H   0  0  0  0  0  0  0  0  0  0  0  0
  125.7581  141.8295  165.5127 H   0  0  0  0  0  0  0  0  0  0  0  0
  125.8134  141.0002  163.9388 H   0  0  0  0  0  0  0  0  0  0  0  0
  125.9946  139.6491  166.6699 H   0  0  0  0  0  0  0  0  0  0  0  0
  127.3571  139.9349  165.5607 H   0  0  0  0  0  0  0  0  0  0  0  0
  127.7753  137.5783  165.7282 H   0  0  0  0  0  0  0  0  0  0  0  0
  126.2566  136.8367  166.3318 H   0  0  0  0  0  0  0  0  0  0  0  0
  127.6394  135.5766  164.3903 H   0  0  0  0  0  0  0  0  0  0  0  0
  125.8571  135.6933  164.2506 H   0  0  0  0  0  0  0  0  0  0  0  0
  127.9988  137.2036  162.7547 H   0  0  0  0  0  0  0  0  0  0  0  0
  125.2424  136.8573  161.8040 H   0  0  0  0  0  0  0  0  0  0  0  0
  125.0292  134.4580  160.4590 H   0  0  0  0  0  0  0  0  0  0  0  0
  126.8653  133.1378  158.9926 H   0  0  0  0  0  0  0  0  0  0  0  0
  132.7667  134.4030  158.7462 H   0  0  0  0  0  0  0  0  0  0  0  0
  130.3024  135.9912  161.2275 H   0  0  0  0  0  0  0  0  0  0  0  0
  132.0338  135.9476  160.8166 H   0  0  0  0  0  0  0  0  0  0  0  0
  130.9987  139.3202  159.9524 H   0  0  0  0  0  0  0  0  0  0  0  0
  130.3892  138.3858  161.3393 H   0  0  0  0  0  0  0  0  0  0  0  0
  132.0503  138.2413  163.1457 H   0  0  0  0  0  0  0  0  0  0  0  0
  134.5220  137.4172  163.3179 H   0  0  0  0  0  0  0  0  0  0  0  0
  134.6567  139.1543  162.9055 H   0  0  0  0  0  0  0  0  0  0  0  0
  134.9993  136.7321  161.1101 H   0  0  0  0  0  0  0  0  0  0  0  0
  135.8118  138.3316  161.0249 H   0  0  0  0  0  0  0  0  0  0  0  0
  133.6570  137.6478  159.3980 H   0  0  0  0  0  0  0  0  0  0  0  0
  133.9952  139.3307  159.9073 H   0  0  0  0  0  0  0  0  0  0  0  0
  125.5738  138.7954  162.7725 H   0  0  0  0  0  0  0  0  0  0  0  0
  127.2075  139.2738  163.3124 H   0  0  0  0  0  0  0  0  0  0  0  0
  1  2  1  0
  1 31  1  0
  1 32  1  0
  1 33  1  0
  2  3  1  0
  2 34  1  0
  2 35  1  0
  3  4  1  6
  3 30  1  0
  3  5  1  0
  5  6  1  0
  5 36  1  0
  5 37  1  0
  6  7  1  0
  6 38  1  0
  6 39  1  0
  7  8  1  0
  7 30  1  0
  7 40  1  6
  8  9  1  0
  8 41  1  0
  9 29  1  0
  9 10  2  0
 10 11  1  0
 10 42  1  0
 11 12  2  0
 11 43  1  0
 12 13  1  0
 12 29  1  0
 13 18  1  0
 13 14  2  0
 14 15  1  0
 15 16  1  0
 15 17  1  0
 17 18  2  0
 17 44  1  0
 18 19  1  0
 19 20  1  0
 19 45  1  0
 19 46  1  0
 20 21  1  0
 20 22  1  0
 20 23  1  0
 23 24  1  0
 23 47  1  0
 23 48  1  0
 24 28  1  0
 24 25  2  0
 25 26  1  0
 25 49  1  0
 26 27  1  0
 26 50  1  0
 26 51  1  0
 27 28  1  0
 27 52  1  0
 27 53  1  0
 28 54  1  0
 28 55  1  0
 30 56  1  0
 30 57  1  0
M  CHG  1  20   1
M  END
>  <DOCK_score>  (1) 
-44.888927

>  <SMILES>  (1) 
CC[C@@H]1CCC(Nc2ccc(-c3n[nH]cc3C[NH2+]CC3=CCCC3)o2)C1

$$$$
