Cc1c(N[C@@H]2CC(O)C2(C)C)cccc1N1CC[NH+](C(c2ccccc2)c2ccccc2)CC1
     RDKit          3D

 72 76  0  0  1  0  0  0  0  0999 V2000
  133.7962  134.8884  163.6447 C   0  0  0  0  0  0  0  0  0  0  0  0
  134.2492  135.9917  162.7236 C   0  0  0  0  0  0  0  0  0  0  0  0
  135.2498  136.8659  163.1248 C   0  0  0  0  0  0  0  0  0  0  0  0
  135.8382  136.7246  164.3837 N   0  0  0  0  0  0  0  0  0  0  0  0
  137.2315  137.1272  164.5903 C   0  0  2  0  0  0  0  0  0  0  0  0
  137.4025  138.1832  164.3812 H   0  0  0  0  0  0  0  0  0  0  0  0
  138.2494  136.1912  163.9174 C   0  0  0  0  0  0  0  0  0  0  0  0
  139.1157  136.3536  165.1796 C   0  0  2  0  0  0  0  0  0  0  0  0
  139.7482  135.1432  165.6008 O   0  0  0  0  0  0  0  0  0  0  0  0
  137.8134  136.6638  165.9363 C   0  0  0  0  0  0  0  0  0  0  0  0
  137.9544  137.7892  166.9631 C   0  0  0  0  0  0  0  0  0  0  0  0
  137.1253  135.4218  166.5065 C   0  0  0  0  0  0  0  0  0  0  0  0
  135.6617  137.8852  162.2750 C   0  0  0  0  0  0  0  0  0  0  0  0
  135.0835  138.0224  161.0275 C   0  0  0  0  0  0  0  0  0  0  0  0
  134.0874  137.1543  160.6251 C   0  0  0  0  0  0  0  0  0  0  0  0
  133.6669  136.1358  161.4724 C   0  0  0  0  0  0  0  0  0  0  0  0
  132.6600  135.2580  161.0644 N   0  0  0  0  0  0  0  0  0  0  0  0
  133.0875  134.4711  159.8991 C   0  0  0  0  0  0  0  0  0  0  0  0
  131.9819  133.4827  159.5215 C   0  0  0  0  0  0  0  0  0  0  0  0
  130.7505  134.2205  159.2108 N   0  0  0  0  0  0  0  0  0  0  0  0
  130.9229  134.8553  158.4458 H   0  0  0  0  0  0  0  0  0  0  0  0
  129.6946  133.2724  158.8310 C   0  0  0  0  0  0  0  0  0  0  0  0
  128.4310  134.0290  158.5121 C   0  0  0  0  0  0  0  0  0  0  0  0
  127.1993  133.4390  158.7263 C   0  0  0  0  0  0  0  0  0  0  0  0
  126.0401  134.1348  158.4384 C   0  0  0  0  0  0  0  0  0  0  0  0
  126.1126  135.4167  157.9262 C   0  0  0  0  0  0  0  0  0  0  0  0
  127.3444  136.0048  157.7070 C   0  0  0  0  0  0  0  0  0  0  0  0
  128.5034  135.3109  157.9999 C   0  0  0  0  0  0  0  0  0  0  0  0
  130.1325  132.4922  157.6183 C   0  0  0  0  0  0  0  0  0  0  0  0
  129.8391  132.9615  156.3515 C   0  0  0  0  0  0  0  0  0  0  0  0
  130.2449  132.2483  155.2391 C   0  0  0  0  0  0  0  0  0  0  0  0
  130.9352  131.0606  155.3934 C   0  0  0  0  0  0  0  0  0  0  0  0
  131.2242  130.5888  156.6602 C   0  0  0  0  0  0  0  0  0  0  0  0
  130.8229  131.3046  157.7727 C   0  0  0  0  0  0  0  0  0  0  0  0
  130.3227  134.9820  160.3917 C   0  0  0  0  0  0  0  0  0  0  0  0
  131.4143  135.9828  160.7766 C   0  0  0  0  0  0  0  0  0  0  0  0
  132.9787  135.2487  164.2688 H   0  0  0  0  0  0  0  0  0  0  0  0
  133.4548  134.0387  163.0534 H   0  0  0  0  0  0  0  0  0  0  0  0
  134.6279  134.5794  164.2780 H   0  0  0  0  0  0  0  0  0  0  0  0
  135.3242  136.3600  165.1211 H   0  0  0  0  0  0  0  0  0  0  0  0
  137.8792  135.1765  163.7711 H   0  0  0  0  0  0  0  0  0  0  0  0
  138.7006  136.6109  163.0184 H   0  0  0  0  0  0  0  0  0  0  0  0
  139.8042  137.1972  165.1311 H   0  0  0  0  0  0  0  0  0  0  0  0
  139.9971  135.1341  166.5351 H   0  0  0  0  0  0  0  0  0  0  0  0
  138.3961  137.3933  167.8777 H   0  0  0  0  0  0  0  0  0  0  0  0
  136.9711  138.2041  167.1847 H   0  0  0  0  0  0  0  0  0  0  0  0
  138.5963  138.5717  166.5587 H   0  0  0  0  0  0  0  0  0  0  0  0
  136.0736  135.6414  166.6903 H   0  0  0  0  0  0  0  0  0  0  0  0
  137.2059  134.6020  165.7929 H   0  0  0  0  0  0  0  0  0  0  0  0
  137.6060  135.1376  167.4425 H   0  0  0  0  0  0  0  0  0  0  0  0
  136.4374  138.5681  162.5883 H   0  0  0  0  0  0  0  0  0  0  0  0
  135.4083  138.8130  160.3673 H   0  0  0  0  0  0  0  0  0  0  0  0
  133.6345  137.2672  159.6512 H   0  0  0  0  0  0  0  0  0  0  0  0
  133.2800  135.1394  159.0597 H   0  0  0  0  0  0  0  0  0  0  0  0
  133.9972  133.9231  160.1440 H   0  0  0  0  0  0  0  0  0  0  0  0
  131.7992  132.8058  160.3562 H   0  0  0  0  0  0  0  0  0  0  0  0
  132.2913  132.9079  158.6485 H   0  0  0  0  0  0  0  0  0  0  0  0
  129.5084  132.5859  159.6568 H   0  0  0  0  0  0  0  0  0  0  0  0
  127.1428  132.4358  159.1223 H   0  0  0  0  0  0  0  0  0  0  0  0
  125.0778  133.6751  158.6093 H   0  0  0  0  0  0  0  0  0  0  0  0
  125.2070  135.9586  157.6969 H   0  0  0  0  0  0  0  0  0  0  0  0
  127.4010  137.0061  157.3064 H   0  0  0  0  0  0  0  0  0  0  0  0
  129.4657  135.7702  157.8282 H   0  0  0  0  0  0  0  0  0  0  0  0
  129.2958  133.8871  156.2310 H   0  0  0  0  0  0  0  0  0  0  0  0
  130.0189  132.6168  154.2493 H   0  0  0  0  0  0  0  0  0  0  0  0
  131.2485  130.5012  154.5243 H   0  0  0  0  0  0  0  0  0  0  0  0
  131.7632  129.6607  156.7809 H   0  0  0  0  0  0  0  0  0  0  0  0
  131.0483  130.9358  158.7623 H   0  0  0  0  0  0  0  0  0  0  0  0
  130.1484  134.2974  161.2219 H   0  0  0  0  0  0  0  0  0  0  0  0
  129.4017  135.5186  160.1640 H   0  0  0  0  0  0  0  0  0  0  0  0
  131.1035  136.5377  161.6618 H   0  0  0  0  0  0  0  0  0  0  0  0
  131.5793  136.6761  159.9517 H   0  0  0  0  0  0  0  0  0  0  0  0
  1  2  1  0
  1 37  1  0
  1 38  1  0
  1 39  1  0
  2 16  2  0
  2  3  1  0
  3  4  1  0
  3 13  2  0
  4  5  1  0
  4 40  1  0
  5  6  1  6
  5 10  1  0
  5  7  1  0
  7  8  1  0
  7 41  1  0
  7 42  1  0
  8  9  1  0
  8 10  1  0
  8 43  1  6
  9 44  1  0
 10 11  1  0
 10 12  1  0
 11 45  1  0
 11 46  1  0
 11 47  1  0
 12 48  1  0
 12 49  1  0
 12 50  1  0
 13 14  1  0
 13 51  1  0
 14 15  2  0
 14 52  1  0
 15 16  1  0
 15 53  1  0
 16 17  1  0
 17 36  1  0
 17 18  1  0
 18 19  1  0
 18 54  1  0
 18 55  1  0
 19 20  1  0
 19 56  1  0
 19 57  1  0
 20 21  1  0
 20 22  1  0
 20 35  1  0
 22 23  1  0
 22 29  1  0
 22 58  1  0
 23 28  1  0
 23 24  2  0
 24 25  1  0
 24 59  1  0
 25 26  2  0
 25 60  1  0
 26 27  1  0
 26 61  1  0
 27 28  2  0
 27 62  1  0
 28 63  1  0
 29 34  1  0
 29 30  2  0
 30 31  1  0
 30 64  1  0
 31 32  2  0
 31 65  1  0
 32 33  1  0
 32 66  1  0
 33 34  2  0
 33 67  1  0
 34 68  1  0
 35 36  1  0
 35 69  1  0
 35 70  1  0
 36 71  1  0
 36 72  1  0
M  CHG  1  20   1
M  END
>  <DOCK_score>  (1) 
-56.626167

>  <SMILES>  (1) 
Cc1c(N[C@@H]2CC(O)C2(C)C)cccc1N1CC[NH+](C(c2ccccc2)c2ccccc2)CC1

$$$$
