CC([NH2+][C@H]1C=C2CCCCC2C1)c1ccn(-c2ccc(-c3cc[nH]c3)cc2)c1
     RDKit          3D

 58 62  0  0  1  0  0  0  0  0999 V2000
  129.6285  136.5366  159.5903 C   0  0  0  0  0  0  0  0  0  0  0  0
  130.6322  135.5318  160.1592 C   0  0  2  0  0  0  0  0  0  0  0  0
  131.9979  136.0277  159.9429 N   0  0  0  0  0  0  0  0  0  0  0  0
  132.6487  135.2592  160.0052 H   0  0  0  0  0  0  0  0  0  0  0  0
  132.0617  136.4491  159.0283 H   0  0  0  0  0  0  0  0  0  0  0  0
  132.3232  137.0292  160.9672 C   0  0  1  0  0  0  0  0  0  0  0  0
  131.9294  136.7192  161.9351 H   0  0  0  0  0  0  0  0  0  0  0  0
  133.8194  137.2247  161.0502 C   0  0  0  0  0  0  0  0  0  0  0  0
  134.1289  138.4807  161.0571 C   0  0  0  0  0  0  0  0  0  0  0  0
  135.4709  139.1174  161.3773 C   0  0  0  0  0  0  0  0  0  0  0  0
  135.2192  140.0022  162.6128 C   0  0  0  0  0  0  0  0  0  0  0  0
  134.0453  140.9454  162.3677 C   0  0  0  0  0  0  0  0  0  0  0  0
  132.7301  140.1933  162.1125 C   0  0  0  0  0  0  0  0  0  0  0  0
  132.9068  139.3588  160.8456 C   0  0  2  0  0  0  0  0  0  0  0  0
  131.7443  138.4052  160.5712 C   0  0  0  0  0  0  0  0  0  0  0  0
  130.4636  134.2052  159.4643 C   0  0  0  0  0  0  0  0  0  0  0  0
  130.1303  132.9800  160.0760 C   0  0  0  0  0  0  0  0  0  0  0  0
  130.0727  132.0455  159.1053 C   0  0  0  0  0  0  0  0  0  0  0  0
  130.3680  132.6475  157.9156 N   0  0  0  0  0  0  0  0  0  0  0  0
  130.4159  132.0112  156.6672 C   0  0  0  0  0  0  0  0  0  0  0  0
  130.1083  132.7225  155.5144 C   0  0  0  0  0  0  0  0  0  0  0  0
  130.1551  132.0990  154.2851 C   0  0  0  0  0  0  0  0  0  0  0  0
  130.5114  130.7539  154.2003 C   0  0  0  0  0  0  0  0  0  0  0  0
  130.5621  130.0805  152.8788 C   0  0  0  0  0  0  0  0  0  0  0  0
  129.7741  130.3949  151.7420 C   0  0  0  0  0  0  0  0  0  0  0  0
  130.1300  129.5457  150.7600 C   0  0  0  0  0  0  0  0  0  0  0  0
  131.1109  128.7236  151.2323 N   0  0  0  0  0  0  0  0  0  0  0  0
  131.5488  128.0208  150.7270 H   0  0  0  0  0  0  0  0  0  0  0  0
  131.3763  129.0493  152.5278 C   0  0  0  0  0  0  0  0  0  0  0  0
  130.8145  130.0417  155.3588 C   0  0  0  0  0  0  0  0  0  0  0  0
  130.7713  130.6710  156.5851 C   0  0  0  0  0  0  0  0  0  0  0  0
  130.6033  133.9732  158.1431 C   0  0  0  0  0  0  0  0  0  0  0  0
  129.7504  137.4961  160.0930 H   0  0  0  0  0  0  0  0  0  0  0  0
  129.8049  136.6612  158.5220 H   0  0  0  0  0  0  0  0  0  0  0  0
  128.6152  136.1687  159.7509 H   0  0  0  0  0  0  0  0  0  0  0  0
  130.4558  135.4073  161.2276 H   0  0  0  0  0  0  0  0  0  0  0  0
  134.5370  136.4190  161.0969 H   0  0  0  0  0  0  0  0  0  0  0  0
  136.2081  138.3483  161.6078 H   0  0  0  0  0  0  0  0  0  0  0  0
  135.8089  139.7271  160.5393 H   0  0  0  0  0  0  0  0  0  0  0  0
  134.9967  139.3669  163.4702 H   0  0  0  0  0  0  0  0  0  0  0  0
  136.1135  140.5885  162.8232 H   0  0  0  0  0  0  0  0  0  0  0  0
  133.9208  141.5907  163.2373 H   0  0  0  0  0  0  0  0  0  0  0  0
  134.2626  141.5638  161.4967 H   0  0  0  0  0  0  0  0  0  0  0  0
  131.9094  140.8978  161.9782 H   0  0  0  0  0  0  0  0  0  0  0  0
  132.5201  139.5389  162.9585 H   0  0  0  0  0  0  0  0  0  0  0  0
  133.0619  140.0130  159.9877 H   0  0  0  0  0  0  0  0  0  0  0  0
  131.4742  138.4204  159.5154 H   0  0  0  0  0  0  0  0  0  0  0  0
  130.8852  138.6556  161.1937 H   0  0  0  0  0  0  0  0  0  0  0  0
  129.9491  132.8198  161.1285 H   0  0  0  0  0  0  0  0  0  0  0  0
  129.8368  131.0009  159.2451 H   0  0  0  0  0  0  0  0  0  0  0  0
  129.8318  133.7643  155.5807 H   0  0  0  0  0  0  0  0  0  0  0  0
  129.9160  132.6526  153.3890 H   0  0  0  0  0  0  0  0  0  0  0  0
  129.0255  131.1707  151.6769 H   0  0  0  0  0  0  0  0  0  0  0  0
  129.7127  129.5224  149.7641 H   0  0  0  0  0  0  0  0  0  0  0  0
  132.1057  128.5719  153.1653 H   0  0  0  0  0  0  0  0  0  0  0  0
  131.0866  128.9984  155.2960 H   0  0  0  0  0  0  0  0  0  0  0  0
  131.0101  130.1203  157.4829 H   0  0  0  0  0  0  0  0  0  0  0  0
  130.8572  134.7090  157.3943 H   0  0  0  0  0  0  0  0  0  0  0  0
  1  2  1  0
  1 33  1  0
  1 34  1  0
  1 35  1  0
  2  3  1  0
  2 16  1  0
  2 36  1  1
  3  4  1  0
  3  5  1  0
  3  6  1  0
  6  7  1  1
  6 15  1  0
  6  8  1  0
  8  9  2  0
  8 37  1  0
  9 14  1  0
  9 10  1  0
 10 11  1  0
 10 38  1  0
 10 39  1  0
 11 12  1  0
 11 40  1  0
 11 41  1  0
 12 13  1  0
 12 42  1  0
 12 43  1  0
 13 14  1  0
 13 44  1  0
 13 45  1  0
 14 15  1  0
 14 46  1  6
 15 47  1  0
 15 48  1  0
 16 32  2  0
 16 17  1  0
 17 18  2  0
 17 49  1  0
 18 19  1  0
 18 50  1  0
 19 20  1  0
 19 32  1  0
 20 31  1  0
 20 21  2  0
 21 22  1  0
 21 51  1  0
 22 23  2  0
 22 52  1  0
 23 24  1  0
 23 30  1  0
 24 29  2  0
 24 25  1  0
 25 26  2  0
 25 53  1  0
 26 27  1  0
 26 54  1  0
 27 28  1  0
 27 29  1  0
 29 55  1  0
 30 31  2  0
 30 56  1  0
 31 57  1  0
 32 58  1  0
M  CHG  1   3   1
M  END
>  <DOCK_score>  (1) 
-56.375565

>  <SMILES>  (1) 
CC([NH2+][C@H]1C=C2CCCCC2C1)c1ccn(-c2ccc(-c3cc[nH]c3)cc2)c1

$$$$
