C=C(CCC)c1c[nH]c(N[C@@H]2C[C@H](O)C[C@@H]2Nc2ccccc2)[nH+]1
     RDKit          3D

 51 53  0  0  1  0  0  0  0  0999 V2000
  133.7261  135.9838  164.4040 C   0  0  0  0  0  0  0  0  0  0  0  0
  134.1930  136.1767  163.1775 C   0  0  0  0  0  0  0  0  0  0  0  0
  135.6291  136.5852  162.9735 C   0  0  0  0  0  0  0  0  0  0  0  0
  135.7304  138.1118  162.9764 C   0  0  0  0  0  0  0  0  0  0  0  0
  137.1884  138.5267  162.7693 C   0  0  0  0  0  0  0  0  0  0  0  0
  133.3051  135.9910  162.0114 C   0  0  0  0  0  0  0  0  0  0  0  0
  133.3912  136.6513  160.8273 C   0  0  0  0  0  0  0  0  0  0  0  0
  132.3785  136.1750  160.0318 N   0  0  0  0  0  0  0  0  0  0  0  0
  132.1814  136.4550  159.1241 H   0  0  0  0  0  0  0  0  0  0  0  0
  131.7022  135.2379  160.7507 C   0  0  0  0  0  0  0  0  0  0  0  0
  130.6069  134.5173  160.3067 N   0  0  0  0  0  0  0  0  0  0  0  0
  129.6896  135.1072  159.3287 C   0  0  2  0  0  0  0  0  0  0  0  0
  130.2262  135.3495  158.4114 H   0  0  0  0  0  0  0  0  0  0  0  0
  129.0426  136.3760  159.9114 C   0  0  0  0  0  0  0  0  0  0  0  0
  127.5214  136.1214  159.9408 C   0  0  2  0  0  0  0  0  0  0  0  0
  127.0488  136.5302  159.0478 H   0  0  0  0  0  0  0  0  0  0  0  0
  126.9418  136.6897  161.1169 O   0  0  0  0  0  0  0  0  0  0  0  0
  127.3951  134.5777  159.9660 C   0  0  0  0  0  0  0  0  0  0  0  0
  128.5389  134.1259  159.0244 C   0  0  2  0  0  0  0  0  0  0  0  0
  128.2325  134.2088  157.9816 H   0  0  0  0  0  0  0  0  0  0  0  0
  128.9427  132.7514  159.3310 N   0  0  0  0  0  0  0  0  0  0  0  0
  129.5461  131.9648  158.3471 C   0  0  0  0  0  0  0  0  0  0  0  0
  129.7640  132.4842  157.0773 C   0  0  0  0  0  0  0  0  0  0  0  0
  130.3611  131.7039  156.1069 C   0  0  0  0  0  0  0  0  0  0  0  0
  130.7421  130.4068  156.3981 C   0  0  0  0  0  0  0  0  0  0  0  0
  130.5215  129.8847  157.6595 C   0  0  0  0  0  0  0  0  0  0  0  0
  129.9299  130.6614  158.6362 C   0  0  0  0  0  0  0  0  0  0  0  0
  132.2546  135.1339  161.9345 N   0  0  0  0  0  0  0  0  0  0  0  0
  131.9612  134.5385  162.6418 H   0  0  0  0  0  0  0  0  0  0  0  0
  134.3752  136.1196  165.2564 H   0  0  0  0  0  0  0  0  0  0  0  0
  132.6968  135.6911  164.5501 H   0  0  0  0  0  0  0  0  0  0  0  0
  136.2404  136.1791  163.7797 H   0  0  0  0  0  0  0  0  0  0  0  0
  135.9846  136.1992  162.0182 H   0  0  0  0  0  0  0  0  0  0  0  0
  135.1193  138.5180  162.1703 H   0  0  0  0  0  0  0  0  0  0  0  0
  135.3749  138.4979  163.9317 H   0  0  0  0  0  0  0  0  0  0  0  0
  137.5440  138.1407  161.8141 H   0  0  0  0  0  0  0  0  0  0  0  0
  137.2606  139.6143  162.7713 H   0  0  0  0  0  0  0  0  0  0  0  0
  137.7997  138.1206  163.5755 H   0  0  0  0  0  0  0  0  0  0  0  0
  134.1171  137.4057  160.5625 H   0  0  0  0  0  0  0  0  0  0  0  0
  130.4469  133.6216  160.6431 H   0  0  0  0  0  0  0  0  0  0  0  0
  129.4113  136.5527  160.9219 H   0  0  0  0  0  0  0  0  0  0  0  0
  129.2660  137.2340  159.2774 H   0  0  0  0  0  0  0  0  0  0  0  0
  125.9862  136.5592  161.1869 H   0  0  0  0  0  0  0  0  0  0  0  0
  126.4269  134.2630  159.5765 H   0  0  0  0  0  0  0  0  0  0  0  0
  127.5504  134.1938  160.9743 H   0  0  0  0  0  0  0  0  0  0  0  0
  128.7910  132.3877  160.2173 H   0  0  0  0  0  0  0  0  0  0  0  0
  129.4663  133.4970  156.8492 H   0  0  0  0  0  0  0  0  0  0  0  0
  130.5311  132.1073  155.1196 H   0  0  0  0  0  0  0  0  0  0  0  0
  131.2089  129.7988  155.6373 H   0  0  0  0  0  0  0  0  0  0  0  0
  130.8159  128.8698  157.8821 H   0  0  0  0  0  0  0  0  0  0  0  0
  129.7619  130.2546  159.6224 H   0  0  0  0  0  0  0  0  0  0  0  0
  1  2  2  0
  1 30  1  0
  1 31  1  0
  2  3  1  0
  2  6  1  0
  3  4  1  0
  3 32  1  0
  3 33  1  0
  4  5  1  0
  4 34  1  0
  4 35  1  0
  5 36  1  0
  5 37  1  0
  5 38  1  0
  6 28  1  0
  6  7  2  0
  7  8  1  0
  7 39  1  0
  8  9  1  0
  8 10  1  0
 10 11  1  0
 10 28  2  0
 11 12  1  0
 11 40  1  0
 12 13  1  6
 12 19  1  0
 12 14  1  0
 14 15  1  0
 14 41  1  0
 14 42  1  0
 15 16  1  6
 15 17  1  0
 15 18  1  0
 17 43  1  0
 18 19  1  0
 18 44  1  0
 18 45  1  0
 19 20  1  6
 19 21  1  0
 21 22  1  0
 21 46  1  0
 22 27  1  0
 22 23  2  0
 23 24  1  0
 23 47  1  0
 24 25  2  0
 24 48  1  0
 25 26  1  0
 25 49  1  0
 26 27  2  0
 26 50  1  0
 27 51  1  0
 28 29  1  0
M  CHG  1  28   1
M  END
>  <DOCK_score>  (1) 
-42.455486

>  <SMILES>  (1) 
C=C(CCC)c1c[nH]c(N[C@@H]2C[C@H](O)C[C@@H]2Nc2ccccc2)[nH+]1

$$$$
