Cc1ccc2c(C[C@H]([NH2+]Cc3cccc4c3NC(=O)CO4)c3cnn4ccccc34)c[nH]c2c1
     RDKit          3D

 60 65  0  0  1  0  0  0  0  0999 V2000
  128.6385  140.1393  166.0759 C   0  0  0  0  0  0  0  0  0  0  0  0
  128.6548  139.0556  165.0288 C   0  0  0  0  0  0  0  0  0  0  0  0
  129.8666  138.6183  164.5114 C   0  0  0  0  0  0  0  0  0  0  0  0
  129.9019  137.6371  163.5612 C   0  0  0  0  0  0  0  0  0  0  0  0
  128.7100  137.0689  163.1069 C   0  0  0  0  0  0  0  0  0  0  0  0
  128.3864  136.0279  162.1284 C   0  0  0  0  0  0  0  0  0  0  0  0
  129.3678  135.2442  161.2957 C   0  0  0  0  0  0  0  0  0  0  0  0
  129.6185  135.9787  159.9771 C   0  0  2  0  0  0  0  0  0  0  0  0
  128.6798  136.3911  159.6068 H   0  0  0  0  0  0  0  0  0  0  0  0
  130.1640  135.0387  158.9889 N   0  0  0  0  0  0  0  0  0  0  0  0
  130.6286  135.5533  158.2557 H   0  0  0  0  0  0  0  0  0  0  0  0
  130.8251  134.4235  159.4389 H   0  0  0  0  0  0  0  0  0  0  0  0
  129.0705  134.2448  158.4125 C   0  0  0  0  0  0  0  0  0  0  0  0
  129.6301  133.2804  157.3987 C   0  0  0  0  0  0  0  0  0  0  0  0
  129.7503  133.6592  156.0738 C   0  0  0  0  0  0  0  0  0  0  0  0
  130.2629  132.7761  155.1419 C   0  0  0  0  0  0  0  0  0  0  0  0
  130.6602  131.5082  155.5277 C   0  0  0  0  0  0  0  0  0  0  0  0
  130.5438  131.1224  156.8512 C   0  0  0  0  0  0  0  0  0  0  0  0
  130.0307  132.0147  157.7919 C   0  0  0  0  0  0  0  0  0  0  0  0
  129.9110  131.6082  159.1285 N   0  0  0  0  0  0  0  0  0  0  0  0
  130.5810  130.5096  159.5397 C   0  0  0  0  0  0  0  0  0  0  0  0
  130.4720  130.1227  160.6841 O   0  0  0  0  0  0  0  0  0  0  0  0
  131.4644  129.7662  158.5704 C   0  0  0  0  0  0  0  0  0  0  0  0
  130.9309  129.8810  157.2487 O   0  0  0  0  0  0  0  0  0  0  0  0
  130.6033  137.0965  160.2041 C   0  0  0  0  0  0  0  0  0  0  0  0
  130.3757  138.4453  159.9843 C   0  0  0  0  0  0  0  0  0  0  0  0
  131.4616  139.1189  160.2937 N   0  0  0  0  0  0  0  0  0  0  0  0
  132.4438  138.2211  160.7303 N   0  0  0  0  0  0  0  0  0  0  0  0
  133.7277  138.3977  161.1599 C   0  0  0  0  0  0  0  0  0  0  0  0
  134.4802  137.3412  161.5320 C   0  0  0  0  0  0  0  0  0  0  0  0
  133.9533  136.0400  161.4828 C   0  0  0  0  0  0  0  0  0  0  0  0
  132.6754  135.8481  161.0569 C   0  0  0  0  0  0  0  0  0  0  0  0
  131.9042  136.9618  160.6728 C   0  0  0  0  0  0  0  0  0  0  0  0
  127.0501  135.9002  162.1187 C   0  0  0  0  0  0  0  0  0  0  0  0
  126.4913  136.7779  163.0073 N   0  0  0  0  0  0  0  0  0  0  0  0
  125.5406  136.8703  163.1763 H   0  0  0  0  0  0  0  0  0  0  0  0
  127.4794  137.5104  163.6261 C   0  0  0  0  0  0  0  0  0  0  0  0
  127.4669  138.5139  164.5897 C   0  0  0  0  0  0  0  0  0  0  0  0
  128.5762  141.1130  165.5900 H   0  0  0  0  0  0  0  0  0  0  0  0
  127.7751  140.0024  166.7270 H   0  0  0  0  0  0  0  0  0  0  0  0
  129.5522  140.0864  166.6679 H   0  0  0  0  0  0  0  0  0  0  0  0
  130.7886  139.0574  164.8623 H   0  0  0  0  0  0  0  0  0  0  0  0
  130.8483  137.3020  163.1632 H   0  0  0  0  0  0  0  0  0  0  0  0
  128.9601  134.2548  161.0885 H   0  0  0  0  0  0  0  0  0  0  0  0
  130.3070  135.1435  161.8397 H   0  0  0  0  0  0  0  0  0  0  0  0
  128.5686  133.6889  159.2045 H   0  0  0  0  0  0  0  0  0  0  0  0
  128.3562  134.9093  157.9263 H   0  0  0  0  0  0  0  0  0  0  0  0
  129.4423  134.6477  155.7663 H   0  0  0  0  0  0  0  0  0  0  0  0
  130.3539  133.0772  154.1087 H   0  0  0  0  0  0  0  0  0  0  0  0
  131.0608  130.8210  154.7971 H   0  0  0  0  0  0  0  0  0  0  0  0
  129.3592  132.1096  159.7490 H   0  0  0  0  0  0  0  0  0  0  0  0
  131.5092  128.7145  158.8535 H   0  0  0  0  0  0  0  0  0  0  0  0
  132.4677  130.1916  158.5949 H   0  0  0  0  0  0  0  0  0  0  0  0
  129.4545  138.8744  159.6183 H   0  0  0  0  0  0  0  0  0  0  0  0
  134.1454  139.3927  161.2020 H   0  0  0  0  0  0  0  0  0  0  0  0
  135.4941  137.4972  161.8696 H   0  0  0  0  0  0  0  0  0  0  0  0
  134.5591  135.1971  161.7809 H   0  0  0  0  0  0  0  0  0  0  0  0
  132.2576  134.8531  161.0136 H   0  0  0  0  0  0  0  0  0  0  0  0
  126.4980  135.2071  161.5016 H   0  0  0  0  0  0  0  0  0  0  0  0
  126.5294  138.8593  164.9999 H   0  0  0  0  0  0  0  0  0  0  0  0
  1  2  1  0
  1 39  1  0
  1 40  1  0
  1 41  1  0
  2 38  2  0
  2  3  1  0
  3  4  2  0
  3 42  1  0
  4  5  1  0
  4 43  1  0
  5 37  2  0
  5  6  1  0
  6  7  1  0
  6 34  2  0
  7  8  1  0
  7 44  1  0
  7 45  1  0
  8  9  1  6
  8 10  1  0
  8 25  1  0
 10 11  1  0
 10 12  1  0
 10 13  1  0
 13 14  1  0
 13 46  1  0
 13 47  1  0
 14 19  1  0
 14 15  2  0
 15 16  1  0
 15 48  1  0
 16 17  2  0
 16 49  1  0
 17 18  1  0
 17 50  1  0
 18 24  1  0
 18 19  2  0
 19 20  1  0
 20 21  1  0
 20 51  1  0
 21 22  2  0
 21 23  1  0
 23 24  1  0
 23 52  1  0
 23 53  1  0
 25 33  2  0
 25 26  1  0
 26 27  2  0
 26 54  1  0
 27 28  1  0
 28 33  1  0
 28 29  1  0
 29 30  2  0
 29 55  1  0
 30 31  1  0
 30 56  1  0
 31 32  2  0
 31 57  1  0
 32 33  1  0
 32 58  1  0
 34 35  1  0
 34 59  1  0
 35 36  1  0
 35 37  1  0
 37 38  1  0
 38 60  1  0
M  CHG  1  10   1
M  END
>  <DOCK_score>  (1) 
-48.330978

>  <SMILES>  (1) 
Cc1ccc2c(C[C@H]([NH2+]Cc3cccc4c3NC(=O)CO4)c3cnn4ccccc34)c[nH]c2c1

$$$$
