CCc1ccc(-c2c[nH]c(N[C@H](c3ccc(F)cc3)c3cn(C=C(C)C)nn3)[nH+]2)cc1
     RDKit          3D

 57 60  0  0  1  0  0  0  0  0999 V2000
  130.6611  128.3737  151.7227 C   0  0  0  0  0  0  0  0  0  0  0  0
  131.7275  129.4137  152.0714 C   0  0  0  0  0  0  0  0  0  0  0  0
  131.3178  130.1547  153.3181 C   0  0  0  0  0  0  0  0  0  0  0  0
  131.7037  129.6817  154.5589 C   0  0  0  0  0  0  0  0  0  0  0  0
  131.3355  130.3589  155.7036 C   0  0  0  0  0  0  0  0  0  0  0  0
  130.5642  131.5160  155.6081 C   0  0  0  0  0  0  0  0  0  0  0  0
  130.1611  132.2453  156.8351 C   0  0  0  0  0  0  0  0  0  0  0  0
  129.4226  131.7431  157.8556 C   0  0  0  0  0  0  0  0  0  0  0  0
  129.2854  132.7491  158.7811 N   0  0  0  0  0  0  0  0  0  0  0  0
  128.8067  132.6939  159.6229 H   0  0  0  0  0  0  0  0  0  0  0  0
  129.9448  133.8375  158.2986 C   0  0  0  0  0  0  0  0  0  0  0  0
  130.0467  135.0645  158.9314 N   0  0  0  0  0  0  0  0  0  0  0  0
  128.9732  135.5237  159.8162 C   0  0  2  0  0  0  0  0  0  0  0  0
  128.8486  134.8149  160.6348 H   0  0  0  0  0  0  0  0  0  0  0  0
  127.6871  135.6219  159.0367 C   0  0  0  0  0  0  0  0  0  0  0  0
  126.4770  135.4142  159.6718 C   0  0  0  0  0  0  0  0  0  0  0  0
  125.2966  135.5094  158.9592 C   0  0  0  0  0  0  0  0  0  0  0  0
  125.3272  135.8024  157.6063 C   0  0  0  0  0  0  0  0  0  0  0  0
  124.1743  135.8904  156.9075 F   0  0  0  0  0  0  0  0  0  0  0  0
  126.5402  136.0047  156.9700 C   0  0  0  0  0  0  0  0  0  0  0  0
  127.7189  135.9140  157.6858 C   0  0  0  0  0  0  0  0  0  0  0  0
  129.3269  136.8783  160.3742 C   0  0  0  0  0  0  0  0  0  0  0  0
  128.9408  137.3560  161.5764 C   0  0  0  0  0  0  0  0  0  0  0  0
  129.4709  138.6065  161.6914 N   0  0  0  0  0  0  0  0  0  0  0  0
  129.3314  139.4791  162.7722 C   0  0  0  0  0  0  0  0  0  0  0  0
  129.9059  140.6652  162.7401 C   0  0  0  0  0  0  0  0  0  0  0  0
  130.7133  141.0791  161.5368 C   0  0  0  0  0  0  0  0  0  0  0  0
  129.7554  141.6070  163.9068 C   0  0  0  0  0  0  0  0  0  0  0  0
  130.1839  138.8418  160.5060 N   0  0  0  0  0  0  0  0  0  0  0  0
  130.0766  137.7959  159.7624 N   0  0  0  0  0  0  0  0  0  0  0  0
  130.4709  133.5310  157.1379 N   0  0  0  0  0  0  0  0  0  0  0  0
  130.9965  134.1286  156.5832 H   0  0  0  0  0  0  0  0  0  0  0  0
  130.1738  131.9853  154.3553 C   0  0  0  0  0  0  0  0  0  0  0  0
  130.5522  131.3030  153.2169 C   0  0  0  0  0  0  0  0  0  0  0  0
  129.7079  128.8735  151.5515 H   0  0  0  0  0  0  0  0  0  0  0  0
  130.9575  127.8377  150.8210 H   0  0  0  0  0  0  0  0  0  0  0  0
  130.5586  127.6683  152.5474 H   0  0  0  0  0  0  0  0  0  0  0  0
  132.6807  128.9142  152.2424 H   0  0  0  0  0  0  0  0  0  0  0  0
  131.8299  130.1195  151.2464 H   0  0  0  0  0  0  0  0  0  0  0  0
  132.2976  128.7826  154.6320 H   0  0  0  0  0  0  0  0  0  0  0  0
  131.6413  129.9910  156.6720 H   0  0  0  0  0  0  0  0  0  0  0  0
  129.0191  130.7439  157.9270 H   0  0  0  0  0  0  0  0  0  0  0  0
  130.8289  135.6202  158.7890 H   0  0  0  0  0  0  0  0  0  0  0  0
  126.4536  135.1813  160.7262 H   0  0  0  0  0  0  0  0  0  0  0  0
  124.3511  135.3518  159.4565 H   0  0  0  0  0  0  0  0  0  0  0  0
  126.5653  136.2328  155.9147 H   0  0  0  0  0  0  0  0  0  0  0  0
  128.6652  136.0717  157.1897 H   0  0  0  0  0  0  0  0  0  0  0  0
  128.3299  136.8457  162.3061 H   0  0  0  0  0  0  0  0  0  0  0  0
  128.7528  139.1825  163.6345 H   0  0  0  0  0  0  0  0  0  0  0  0
  130.0769  141.0707  160.6519 H   0  0  0  0  0  0  0  0  0  0  0  0
  131.1073  142.0834  161.6916 H   0  0  0  0  0  0  0  0  0  0  0  0
  131.5397  140.3822  161.3965 H   0  0  0  0  0  0  0  0  0  0  0  0
  130.5637  141.4366  164.6180 H   0  0  0  0  0  0  0  0  0  0  0  0
  129.7961  142.6363  163.5503 H   0  0  0  0  0  0  0  0  0  0  0  0
  128.7976  141.4295  164.3958 H   0  0  0  0  0  0  0  0  0  0  0  0
  129.5759  132.8812  154.2753 H   0  0  0  0  0  0  0  0  0  0  0  0
  130.2504  131.6660  152.2455 H   0  0  0  0  0  0  0  0  0  0  0  0
  1  2  1  0
  1 35  1  0
  1 36  1  0
  1 37  1  0
  2  3  1  0
  2 38  1  0
  2 39  1  0
  3 34  2  0
  3  4  1  0
  4  5  2  0
  4 40  1  0
  5  6  1  0
  5 41  1  0
  6  7  1  0
  6 33  2  0
  7 31  1  0
  7  8  2  0
  8  9  1  0
  8 42  1  0
  9 10  1  0
  9 11  1  0
 11 12  1  0
 11 31  2  0
 12 13  1  0
 12 43  1  0
 13 14  1  1
 13 15  1  0
 13 22  1  0
 15 21  1  0
 15 16  2  0
 16 17  1  0
 16 44  1  0
 17 18  2  0
 17 45  1  0
 18 19  1  0
 18 20  1  0
 20 21  2  0
 20 46  1  0
 21 47  1  0
 22 30  1  0
 22 23  2  0
 23 24  1  0
 23 48  1  0
 24 25  1  0
 24 29  1  0
 25 26  2  0
 25 49  1  0
 26 27  1  0
 26 28  1  0
 27 50  1  0
 27 51  1  0
 27 52  1  0
 28 53  1  0
 28 54  1  0
 28 55  1  0
 29 30  2  0
 31 32  1  0
 33 34  1  0
 33 56  1  0
 34 57  1  0
M  CHG  1  31   1
M  END
>  <DOCK_score>  (1) 
-62.507271

>  <SMILES>  (1) 
CCc1ccc(-c2c[nH]c(N[C@H](c3ccc(F)cc3)c3cn(C=C(C)C)nn3)[nH+]2)cc1

$$$$
