O=C1CC[C@H](NC(NC2CCc3ccccc3C2)=[NH+][C@@H]2CNC(=O)C2)CN1
     RDKit          3D

 55 58  0  0  1  0  0  0  0  0999 V2000
  129.3594  130.5992  158.4226 O   0  0  0  0  0  0  0  0  0  0  0  0
  129.7267  131.7213  158.7002 C   0  0  0  0  0  0  0  0  0  0  0  0
  129.7806  132.7437  157.6016 C   0  0  0  0  0  0  0  0  0  0  0  0
  130.6550  133.9243  158.0311 C   0  0  0  0  0  0  0  0  0  0  0  0
  130.2125  134.3716  159.4296 C   0  0  2  0  0  0  0  0  0  0  0  0
  129.1365  134.5458  159.4344 H   0  0  0  0  0  0  0  0  0  0  0  0
  130.9120  135.6058  159.7951 N   0  0  0  0  0  0  0  0  0  0  0  0
  130.6730  136.1964  161.0135 C   0  0  0  0  0  0  0  0  0  0  0  0
  131.6650  136.9184  161.6338 N   0  0  0  0  0  0  0  0  0  0  0  0
  132.6727  137.6171  160.8324 C   0  0  1  0  0  0  0  0  0  0  0  0
  131.9901  138.6602  159.9397 C   0  0  0  0  0  0  0  0  0  0  0  0
  133.0229  139.1985  158.9516 C   0  0  0  0  0  0  0  0  0  0  0  0
  134.2665  139.6437  159.6756 C   0  0  0  0  0  0  0  0  0  0  0  0
  135.1383  140.4906  159.0031 C   0  0  0  0  0  0  0  0  0  0  0  0
  136.2950  140.9322  159.6109 C   0  0  0  0  0  0  0  0  0  0  0  0
  136.5954  140.5206  160.8962 C   0  0  0  0  0  0  0  0  0  0  0  0
  135.7300  139.6814  161.5665 C   0  0  0  0  0  0  0  0  0  0  0  0
  134.5605  139.2419  160.9591 C   0  0  0  0  0  0  0  0  0  0  0  0
  133.6539  138.3387  161.7537 C   0  0  0  0  0  0  0  0  0  0  0  0
  129.5059  136.0717  161.5803 N   0  0  0  0  0  0  0  0  0  0  0  0
  128.8060  135.5624  161.1426 H   0  0  0  0  0  0  0  0  0  0  0  0
  129.2512  136.7009  162.8786 C   0  0  2  0  0  0  0  0  0  0  0  0
  129.9357  136.3190  163.6360 H   0  0  0  0  0  0  0  0  0  0  0  0
  127.7815  136.5018  163.3108 C   0  0  0  0  0  0  0  0  0  0  0  0
  127.0662  137.6873  162.8242 N   0  0  0  0  0  0  0  0  0  0  0  0
  127.9183  138.6815  162.5209 C   0  0  0  0  0  0  0  0  0  0  0  0
  127.5924  139.7732  162.1051 O   0  0  0  0  0  0  0  0  0  0  0  0
  129.3433  138.2410  162.7746 C   0  0  0  0  0  0  0  0  0  0  0  0
  130.5583  133.2697  160.4320 C   0  0  0  0  0  0  0  0  0  0  0  0
  130.0608  131.9812  159.9648 N   0  0  0  0  0  0  0  0  0  0  0  0
  128.7724  133.0988  157.3877 H   0  0  0  0  0  0  0  0  0  0  0  0
  130.2018  132.2884  156.7053 H   0  0  0  0  0  0  0  0  0  0  0  0
  130.5325  134.7471  157.3269 H   0  0  0  0  0  0  0  0  0  0  0  0
  131.7002  133.6161  158.0581 H   0  0  0  0  0  0  0  0  0  0  0  0
  131.5437  136.0064  159.1777 H   0  0  0  0  0  0  0  0  0  0  0  0
  131.6976  136.9650  162.6022 H   0  0  0  0  0  0  0  0  0  0  0  0
  133.2109  136.8996  160.2128 H   0  0  0  0  0  0  0  0  0  0  0  0
  131.6095  139.4762  160.5540 H   0  0  0  0  0  0  0  0  0  0  0  0
  131.1677  138.1964  159.3950 H   0  0  0  0  0  0  0  0  0  0  0  0
  132.5977  140.0455  158.4131 H   0  0  0  0  0  0  0  0  0  0  0  0
  133.2822  138.4141  158.2406 H   0  0  0  0  0  0  0  0  0  0  0  0
  134.9063  140.8094  157.9976 H   0  0  0  0  0  0  0  0  0  0  0  0
  136.9658  141.5940  159.0832 H   0  0  0  0  0  0  0  0  0  0  0  0
  137.5022  140.8586  161.3755 H   0  0  0  0  0  0  0  0  0  0  0  0
  135.9632  139.3638  162.5720 H   0  0  0  0  0  0  0  0  0  0  0  0
  134.2564  137.6021  162.2850 H   0  0  0  0  0  0  0  0  0  0  0  0
  133.0965  138.9347  162.4764 H   0  0  0  0  0  0  0  0  0  0  0  0
  127.3728  135.6005  162.8537 H   0  0  0  0  0  0  0  0  0  0  0  0
  127.7130  136.4375  164.3967 H   0  0  0  0  0  0  0  0  0  0  0  0
  126.1023  137.7459  162.7334 H   0  0  0  0  0  0  0  0  0  0  0  0
  129.7132  138.6651  163.7082 H   0  0  0  0  0  0  0  0  0  0  0  0
  129.9857  138.5296  161.9425 H   0  0  0  0  0  0  0  0  0  0  0  0
  131.6408  133.2149  160.5480 H   0  0  0  0  0  0  0  0  0  0  0  0
  130.1073  133.5052  161.3961 H   0  0  0  0  0  0  0  0  0  0  0  0
  129.9643  131.2689  160.6161 H   0  0  0  0  0  0  0  0  0  0  0  0
  1  2  2  0
  2 30  1  0
  2  3  1  0
  3  4  1  0
  3 31  1  0
  3 32  1  0
  4  5  1  0
  4 33  1  0
  4 34  1  0
  5  6  1  6
  5  7  1  0
  5 29  1  0
  7 35  1  0
  8  7  1  0
  8  9  1  0
  8 20  2  0
  9 10  1  0
  9 36  1  0
 10 19  1  0
 10 11  1  0
 10 37  1  6
 11 12  1  0
 11 38  1  0
 11 39  1  0
 12 13  1  0
 12 40  1  0
 12 41  1  0
 13 18  2  0
 13 14  1  0
 14 15  2  0
 14 42  1  0
 15 16  1  0
 15 43  1  0
 16 17  2  0
 16 44  1  0
 17 18  1  0
 17 45  1  0
 18 19  1  0
 19 46  1  0
 19 47  1  0
 20 21  1  0
 20 22  1  0
 22 23  1  1
 22 28  1  0
 22 24  1  0
 24 25  1  0
 24 48  1  0
 24 49  1  0
 25 26  1  0
 25 50  1  0
 26 27  2  0
 26 28  1  0
 28 51  1  0
 28 52  1  0
 29 30  1  0
 29 53  1  0
 29 54  1  0
 30 55  1  0
M  CHG  1  20   1
M  END
>  <DOCK_score>  (1) 
-42.890018

>  <SMILES>  (1) 
O=C1CC[C@H](NC(NC2CCc3ccccc3C2)=[NH+][C@@H]2CNC(=O)C2)CN1

$$$$
