Fc1cccc(F)c1C[C@@H](CC1=CCCCC1)Nc1[nH]cc(-c2ccc(Br)cc2)[nH+]1
     RDKit          3D

 55 58  0  0  1  0  0  0  0  0999 V2000
  132.9193  134.3448  162.9119 F   0  0  0  0  0  0  0  0  0  0  0  0
  132.0554  135.0805  163.6453 C   0  0  0  0  0  0  0  0  0  0  0  0
  131.9806  134.8981  165.0159 C   0  0  0  0  0  0  0  0  0  0  0  0
  131.0921  135.6469  165.7656 C   0  0  0  0  0  0  0  0  0  0  0  0
  130.2827  136.5813  165.1492 C   0  0  0  0  0  0  0  0  0  0  0  0
  130.3596  136.7690  163.7794 C   0  0  0  0  0  0  0  0  0  0  0  0
  129.5672  137.6825  163.1769 F   0  0  0  0  0  0  0  0  0  0  0  0
  131.2483  136.0200  163.0275 C   0  0  0  0  0  0  0  0  0  0  0  0
  131.3325  136.2230  161.5365 C   0  0  0  0  0  0  0  0  0  0  0  0
  130.3422  135.2889  160.8380 C   0  0  1  0  0  0  0  0  0  0  0  0
  130.3466  134.3183  161.3340 H   0  0  0  0  0  0  0  0  0  0  0  0
  128.9373  135.8910  160.9077 C   0  0  0  0  0  0  0  0  0  0  0  0
  127.9147  134.8072  160.6827 C   0  0  0  0  0  0  0  0  0  0  0  0
  127.5344  134.5742  159.4675 C   0  0  0  0  0  0  0  0  0  0  0  0
  126.5191  133.5361  159.0885 C   0  0  0  0  0  0  0  0  0  0  0  0
  126.3298  132.5408  160.2352 C   0  0  0  0  0  0  0  0  0  0  0  0
  126.1049  133.3304  161.5310 C   0  0  0  0  0  0  0  0  0  0  0  0
  127.4051  134.0609  161.8808 C   0  0  0  0  0  0  0  0  0  0  0  0
  130.7334  135.1228  159.4361 N   0  0  0  0  0  0  0  0  0  0  0  0
  130.4461  133.9423  158.7725 C   0  0  0  0  0  0  0  0  0  0  0  0
  129.8026  132.8688  159.3071 N   0  0  0  0  0  0  0  0  0  0  0  0
  129.4693  132.7923  160.2148 H   0  0  0  0  0  0  0  0  0  0  0  0
  129.7129  131.9133  158.3240 C   0  0  0  0  0  0  0  0  0  0  0  0
  130.3036  132.4299  157.2181 C   0  0  0  0  0  0  0  0  0  0  0  0
  130.4445  131.7519  155.9063 C   0  0  0  0  0  0  0  0  0  0  0  0
  129.8725  132.3113  154.7650 C   0  0  0  0  0  0  0  0  0  0  0  0
  130.0101  131.6788  153.5464 C   0  0  0  0  0  0  0  0  0  0  0  0
  130.7060  130.4863  153.4575 C   0  0  0  0  0  0  0  0  0  0  0  0
  130.8853  129.6210  151.7857 Br  0  0  0  0  0  0  0  0  0  0  0  0
  131.2720  129.9234  154.5891 C   0  0  0  0  0  0  0  0  0  0  0  0
  131.1443  130.5503  155.8117 C   0  0  0  0  0  0  0  0  0  0  0  0
  130.7438  133.6762  157.5241 N   0  0  0  0  0  0  0  0  0  0  0  0
  131.2050  134.2749  156.9160 H   0  0  0  0  0  0  0  0  0  0  0  0
  132.6131  134.1680  165.4988 H   0  0  0  0  0  0  0  0  0  0  0  0
  131.0316  135.5002  166.8340 H   0  0  0  0  0  0  0  0  0  0  0  0
  129.5894  137.1655  165.7360 H   0  0  0  0  0  0  0  0  0  0  0  0
  132.3437  136.0007  161.1962 H   0  0  0  0  0  0  0  0  0  0  0  0
  131.0873  137.2575  161.2965 H   0  0  0  0  0  0  0  0  0  0  0  0
  128.7822  136.3388  161.8892 H   0  0  0  0  0  0  0  0  0  0  0  0
  128.8314  136.6558  160.1383 H   0  0  0  0  0  0  0  0  0  0  0  0
  127.9754  135.1636  158.6772 H   0  0  0  0  0  0  0  0  0  0  0  0
  125.5681  134.0230  158.8720 H   0  0  0  0  0  0  0  0  0  0  0  0
  126.8607  133.0039  158.2007 H   0  0  0  0  0  0  0  0  0  0  0  0
  125.4628  131.9112  160.0346 H   0  0  0  0  0  0  0  0  0  0  0  0
  127.2197  131.9188  160.3312 H   0  0  0  0  0  0  0  0  0  0  0  0
  125.3023  134.0533  161.3849 H   0  0  0  0  0  0  0  0  0  0  0  0
  125.8390  132.6453  162.3361 H   0  0  0  0  0  0  0  0  0  0  0  0
  128.1548  133.3375  162.2017 H   0  0  0  0  0  0  0  0  0  0  0  0
  127.2152  134.7648  162.6911 H   0  0  0  0  0  0  0  0  0  0  0  0
  131.1939  135.8399  158.9728 H   0  0  0  0  0  0  0  0  0  0  0  0
  129.2589  130.9376  158.4146 H   0  0  0  0  0  0  0  0  0  0  0  0
  129.3256  133.2402  154.8336 H   0  0  0  0  0  0  0  0  0  0  0  0
  129.5704  132.1133  152.6607 H   0  0  0  0  0  0  0  0  0  0  0  0
  131.8141  128.9923  154.5148 H   0  0  0  0  0  0  0  0  0  0  0  0
  131.5862  130.1109  156.6938 H   0  0  0  0  0  0  0  0  0  0  0  0
  1  2  1  0
  2  8  2  0
  2  3  1  0
  3  4  2  0
  3 34  1  0
  4  5  1  0
  4 35  1  0
  5  6  2  0
  5 36  1  0
  6  7  1  0
  6  8  1  0
  8  9  1  0
  9 10  1  0
  9 37  1  0
  9 38  1  0
 10 11  1  1
 10 12  1  0
 10 19  1  0
 12 13  1  0
 12 39  1  0
 12 40  1  0
 13 18  1  0
 13 14  2  0
 14 15  1  0
 14 41  1  0
 15 16  1  0
 15 42  1  0
 15 43  1  0
 16 17  1  0
 16 44  1  0
 16 45  1  0
 17 18  1  0
 17 46  1  0
 17 47  1  0
 18 48  1  0
 18 49  1  0
 19 50  1  0
 20 19  1  0
 20 32  2  0
 20 21  1  0
 21 22  1  0
 21 23  1  0
 23 24  2  0
 23 51  1  0
 24 25  1  0
 24 32  1  0
 25 31  1  0
 25 26  2  0
 26 27  1  0
 26 52  1  0
 27 28  2  0
 27 53  1  0
 28 29  1  0
 28 30  1  0
 30 31  2  0
 30 54  1  0
 31 55  1  0
 32 33  1  0
M  CHG  1  32   1
M  END
>  <DOCK_score>  (1) 
-56.456501

>  <SMILES>  (1) 
Fc1cccc(F)c1C[C@@H](CC1=CCCCC1)Nc1[nH]cc(-c2ccc(Br)cc2)[nH+]1

$$$$
