CCc1ccc(-c2c[nH]c(N[C@H](Cc3ccccn3)c3ccccn3)[nH+]2)cc1
     RDKit          3D

 52 55  0  0  1  0  0  0  0  0999 V2000
  130.1581  129.0853  151.7272 C   0  0  0  0  0  0  0  0  0  0  0  0
  131.3259  129.9824  152.1423 C   0  0  0  0  0  0  0  0  0  0  0  0
  131.0278  130.6078  153.4806 C   0  0  0  0  0  0  0  0  0  0  0  0
  131.4115  129.9637  154.6425 C   0  0  0  0  0  0  0  0  0  0  0  0
  131.1463  130.5344  155.8709 C   0  0  0  0  0  0  0  0  0  0  0  0
  130.4804  131.7568  155.9392 C   0  0  0  0  0  0  0  0  0  0  0  0
  130.1877  132.3725  157.2566 C   0  0  0  0  0  0  0  0  0  0  0  0
  129.4423  131.8221  158.2468 C   0  0  0  0  0  0  0  0  0  0  0  0
  129.4283  132.7236  159.2833 N   0  0  0  0  0  0  0  0  0  0  0  0
  128.9758  132.6137  160.1341 H   0  0  0  0  0  0  0  0  0  0  0  0
  130.1663  133.7994  158.8958 C   0  0  0  0  0  0  0  0  0  0  0  0
  130.4007  134.9324  159.6559 N   0  0  0  0  0  0  0  0  0  0  0  0
  129.8322  135.0421  161.0017 C   0  0  2  0  0  0  0  0  0  0  0  0
  130.1224  135.9962  161.4419 H   0  0  0  0  0  0  0  0  0  0  0  0
  130.3570  133.8984  161.8718 C   0  0  0  0  0  0  0  0  0  0  0  0
  131.7433  134.2330  162.3590 C   0  0  0  0  0  0  0  0  0  0  0  0
  131.9030  134.9051  163.5563 C   0  0  0  0  0  0  0  0  0  0  0  0
  133.1826  135.2077  163.9955 C   0  0  0  0  0  0  0  0  0  0  0  0
  134.2585  134.8212  163.2106 C   0  0  0  0  0  0  0  0  0  0  0  0
  134.0213  134.1521  162.0252 C   0  0  0  0  0  0  0  0  0  0  0  0
  132.7901  133.8764  161.6409 N   0  0  0  0  0  0  0  0  0  0  0  0
  128.3295  134.9628  160.9203 C   0  0  0  0  0  0  0  0  0  0  0  0
  127.6349  135.9020  160.1815 C   0  0  0  0  0  0  0  0  0  0  0  0
  126.2531  135.8169  160.1089 C   0  0  0  0  0  0  0  0  0  0  0  0
  125.6180  134.7921  160.7940 C   0  0  0  0  0  0  0  0  0  0  0  0
  126.3786  133.8927  161.5165 C   0  0  0  0  0  0  0  0  0  0  0  0
  127.6923  134.0013  161.5591 N   0  0  0  0  0  0  0  0  0  0  0  0
  130.6232  133.5834  157.6865 N   0  0  0  0  0  0  0  0  0  0  0  0
  131.1815  134.1930  157.1789 H   0  0  0  0  0  0  0  0  0  0  0  0
  130.0911  132.3990  154.7651 C   0  0  0  0  0  0  0  0  0  0  0  0
  130.3666  131.8218  153.5421 C   0  0  0  0  0  0  0  0  0  0  0  0
  129.2488  129.6819  151.6552 H   0  0  0  0  0  0  0  0  0  0  0  0
  130.3736  128.6330  150.7591 H   0  0  0  0  0  0  0  0  0  0  0  0
  130.0204  128.3013  152.4718 H   0  0  0  0  0  0  0  0  0  0  0  0
  132.2350  129.3864  152.2138 H   0  0  0  0  0  0  0  0  0  0  0  0
  131.4634  130.7670  151.3972 H   0  0  0  0  0  0  0  0  0  0  0  0
  131.9232  129.0142  154.5886 H   0  0  0  0  0  0  0  0  0  0  0  0
  131.4505  130.0326  156.7776 H   0  0  0  0  0  0  0  0  0  0  0  0
  128.9530  130.8596  158.2246 H   0  0  0  0  0  0  0  0  0  0  0  0
  130.9415  135.6536  159.2975 H   0  0  0  0  0  0  0  0  0  0  0  0
  129.6953  133.7592  162.7267 H   0  0  0  0  0  0  0  0  0  0  0  0
  130.3900  132.9807  161.2846 H   0  0  0  0  0  0  0  0  0  0  0  0
  131.0418  135.1912  164.1418 H   0  0  0  0  0  0  0  0  0  0  0  0
  133.3378  135.7316  164.9271 H   0  0  0  0  0  0  0  0  0  0  0  0
  135.2692  135.0401  163.5222 H   0  0  0  0  0  0  0  0  0  0  0  0
  134.8538  133.8477  161.4083 H   0  0  0  0  0  0  0  0  0  0  0  0
  128.1621  136.6901  159.6644 H   0  0  0  0  0  0  0  0  0  0  0  0
  125.6843  136.5347  159.5363 H   0  0  0  0  0  0  0  0  0  0  0  0
  124.5426  134.6983  160.7634 H   0  0  0  0  0  0  0  0  0  0  0  0
  125.8916  133.0917  162.0528 H   0  0  0  0  0  0  0  0  0  0  0  0
  129.5746  133.3464  154.8121 H   0  0  0  0  0  0  0  0  0  0  0  0
  130.0651  132.3183  152.6316 H   0  0  0  0  0  0  0  0  0  0  0  0
  1  2  1  0
  1 32  1  0
  1 33  1  0
  1 34  1  0
  2  3  1  0
  2 35  1  0
  2 36  1  0
  3 31  2  0
  3  4  1  0
  4  5  2  0
  4 37  1  0
  5  6  1  0
  5 38  1  0
  6  7  1  0
  6 30  2  0
  7 28  1  0
  7  8  2  0
  8  9  1  0
  8 39  1  0
  9 10  1  0
  9 11  1  0
 11 12  1  0
 11 28  2  0
 12 13  1  0
 12 40  1  0
 13 14  1  1
 13 15  1  0
 13 22  1  0
 15 16  1  0
 15 41  1  0
 15 42  1  0
 16 21  1  0
 16 17  2  0
 17 18  1  0
 17 43  1  0
 18 19  2  0
 18 44  1  0
 19 20  1  0
 19 45  1  0
 20 21  2  0
 20 46  1  0
 22 27  1  0
 22 23  2  0
 23 24  1  0
 23 47  1  0
 24 25  2  0
 24 48  1  0
 25 26  1  0
 25 49  1  0
 26 27  2  0
 26 50  1  0
 28 29  1  0
 30 31  1  0
 30 51  1  0
 31 52  1  0
M  CHG  1  28   1
M  END
>  <DOCK_score>  (1) 
-55.516022

>  <SMILES>  (1) 
CCc1ccc(-c2c[nH]c(N[C@H](Cc3ccccn3)c3ccccn3)[nH+]2)cc1

$$$$
