c1ccc(C[C@@H](Cc2cccnc2)[NH2+]C2CCN(Cc3ccccc3)CC2)cc1
     RDKit          3D

 61 64  0  0  1  0  0  0  0  0999 V2000
  125.0638  135.6921  158.2493 C   0  0  0  0  0  0  0  0  0  0  0  0
  125.9221  135.7764  157.1687 C   0  0  0  0  0  0  0  0  0  0  0  0
  127.2791  135.9392  157.3751 C   0  0  0  0  0  0  0  0  0  0  0  0
  127.7782  136.0176  158.6618 C   0  0  0  0  0  0  0  0  0  0  0  0
  129.2577  136.1946  158.8867 C   0  0  0  0  0  0  0  0  0  0  0  0
  129.9274  134.8220  158.9782 C   0  0  1  0  0  0  0  0  0  0  0  0
  129.4979  134.2628  159.8095 H   0  0  0  0  0  0  0  0  0  0  0  0
  129.6978  134.0546  157.6747 C   0  0  0  0  0  0  0  0  0  0  0  0
  130.3575  132.7026  157.7648 C   0  0  0  0  0  0  0  0  0  0  0  0
  130.8435  132.0811  156.6244 C   0  0  0  0  0  0  0  0  0  0  0  0
  131.4423  130.8376  156.7549 C   0  0  0  0  0  0  0  0  0  0  0  0
  131.5295  130.2603  158.0078 C   0  0  0  0  0  0  0  0  0  0  0  0
  131.0612  130.8831  159.0715 N   0  0  0  0  0  0  0  0  0  0  0  0
  130.4852  132.0664  158.9847 C   0  0  0  0  0  0  0  0  0  0  0  0
  131.3697  134.9944  159.1974 N   0  0  0  0  0  0  0  0  0  0  0  0
  131.8531  134.1484  158.9355 H   0  0  0  0  0  0  0  0  0  0  0  0
  131.7059  135.7617  158.6352 H   0  0  0  0  0  0  0  0  0  0  0  0
  131.6185  135.2812  160.6166 C   0  0  0  0  0  0  0  0  0  0  0  0
  132.9946  135.9339  160.7730 C   0  0  0  0  0  0  0  0  0  0  0  0
  133.2744  136.1731  162.2585 C   0  0  0  0  0  0  0  0  0  0  0  0
  133.2330  134.8943  162.9792 N   0  0  0  0  0  0  0  0  0  0  0  0
  133.6324  135.0675  164.3822 C   0  0  0  0  0  0  0  0  0  0  0  0
  135.1353  135.1277  164.4731 C   0  0  0  0  0  0  0  0  0  0  0  0
  135.7383  135.8693  165.4718 C   0  0  0  0  0  0  0  0  0  0  0  0
  137.1171  135.9210  165.5576 C   0  0  0  0  0  0  0  0  0  0  0  0
  137.8928  135.2385  164.6398 C   0  0  0  0  0  0  0  0  0  0  0  0
  137.2899  134.5012  163.6375 C   0  0  0  0  0  0  0  0  0  0  0  0
  135.9112  134.4460  163.5542 C   0  0  0  0  0  0  0  0  0  0  0  0
  131.9061  134.2729  162.8825 C   0  0  0  0  0  0  0  0  0  0  0  0
  131.5862  133.9756  161.4158 C   0  0  0  0  0  0  0  0  0  0  0  0
  126.9206  135.9281  159.7423 C   0  0  0  0  0  0  0  0  0  0  0  0
  125.5629  135.7707  159.5359 C   0  0  0  0  0  0  0  0  0  0  0  0
  124.0036  135.5646  158.0880 H   0  0  0  0  0  0  0  0  0  0  0  0
  125.5321  135.7147  156.1635 H   0  0  0  0  0  0  0  0  0  0  0  0
  127.9497  136.0047  156.5309 H   0  0  0  0  0  0  0  0  0  0  0  0
  129.4213  136.7412  159.8153 H   0  0  0  0  0  0  0  0  0  0  0  0
  129.6872  136.7537  158.0554 H   0  0  0  0  0  0  0  0  0  0  0  0
  130.1274  134.6137  156.8434 H   0  0  0  0  0  0  0  0  0  0  0  0
  128.6276  133.9266  157.5120 H   0  0  0  0  0  0  0  0  0  0  0  0
  130.7580  132.5547  155.6576 H   0  0  0  0  0  0  0  0  0  0  0  0
  131.8316  130.3245  155.8880 H   0  0  0  0  0  0  0  0  0  0  0  0
  131.9909  129.2900  158.1175 H   0  0  0  0  0  0  0  0  0  0  0  0
  130.1093  132.5437  159.8775 H   0  0  0  0  0  0  0  0  0  0  0  0
  130.8500  135.9571  160.9917 H   0  0  0  0  0  0  0  0  0  0  0  0
  133.7590  135.2747  160.3613 H   0  0  0  0  0  0  0  0  0  0  0  0
  133.0090  136.8852  160.2413 H   0  0  0  0  0  0  0  0  0  0  0  0
  132.5183  136.8442  162.6660 H   0  0  0  0  0  0  0  0  0  0  0  0
  134.2602  136.6235  162.3744 H   0  0  0  0  0  0  0  0  0  0  0  0
  133.2075  135.9937  164.7692 H   0  0  0  0  0  0  0  0  0  0  0  0
  133.2663  134.2261  164.9707 H   0  0  0  0  0  0  0  0  0  0  0  0
  135.1322  136.4054  166.1869 H   0  0  0  0  0  0  0  0  0  0  0  0
  137.5881  136.4968  166.3406 H   0  0  0  0  0  0  0  0  0  0  0  0
  138.9700  135.2817  164.7041 H   0  0  0  0  0  0  0  0  0  0  0  0
  137.8960  133.9680  162.9200 H   0  0  0  0  0  0  0  0  0  0  0  0
  135.4401  133.8699  162.7714 H   0  0  0  0  0  0  0  0  0  0  0  0
  131.1562  134.9530  163.2870 H   0  0  0  0  0  0  0  0  0  0  0  0
  131.8980  133.3434  163.4517 H   0  0  0  0  0  0  0  0  0  0  0  0
  130.5947  133.5288  161.3430 H   0  0  0  0  0  0  0  0  0  0  0  0
  132.3276  133.2848  161.0145 H   0  0  0  0  0  0  0  0  0  0  0  0
  127.3111  135.9850  160.7477 H   0  0  0  0  0  0  0  0  0  0  0  0
  124.8925  135.7043  160.3801 H   0  0  0  0  0  0  0  0  0  0  0  0
  1 32  2  0
  1  2  1  0
  1 33  1  0
  2  3  2  0
  2 34  1  0
  3  4  1  0
  3 35  1  0
  4  5  1  0
  4 31  2  0
  5  6  1  0
  5 36  1  0
  5 37  1  0
  6  7  1  1
  6  8  1  0
  6 15  1  0
  8  9  1  0
  8 38  1  0
  8 39  1  0
  9 14  1  0
  9 10  2  0
 10 11  1  0
 10 40  1  0
 11 12  2  0
 11 41  1  0
 12 13  1  0
 12 42  1  0
 13 14  2  0
 14 43  1  0
 15 16  1  0
 15 17  1  0
 15 18  1  0
 18 30  1  0
 18 19  1  0
 18 44  1  0
 19 20  1  0
 19 45  1  0
 19 46  1  0
 20 21  1  0
 20 47  1  0
 20 48  1  0
 21 22  1  0
 21 29  1  0
 22 23  1  0
 22 49  1  0
 22 50  1  0
 23 28  1  0
 23 24  2  0
 24 25  1  0
 24 51  1  0
 25 26  2  0
 25 52  1  0
 26 27  1  0
 26 53  1  0
 27 28  2  0
 27 54  1  0
 28 55  1  0
 29 30  1  0
 29 56  1  0
 29 57  1  0
 30 58  1  0
 30 59  1  0
 31 32  1  0
 31 60  1  0
 32 61  1  0
M  CHG  1  15   1
M  END
>  <DOCK_score>  (1) 
-57.142307

>  <SMILES>  (1) 
c1ccc(C[C@@H](Cc2cccnc2)[NH2+]C2CCN(Cc3ccccc3)CC2)cc1

$$$$
