[NH3+]C(C(=O)Nc1cccc(O)c1)c1cccc(NC[C@@H]2CC(O)C23CCC3)c1
     RDKit          3D

 56 59  0  0  1  0  0  0  0  0999 V2000
  130.5833  134.1968  157.5342 N   0  0  0  0  0  0  0  0  0  0  0  0
  129.9697  134.3638  156.7508 H   0  0  0  0  0  0  0  0  0  0  0  0
  131.4798  134.6243  157.3562 H   0  0  0  0  0  0  0  0  0  0  0  0
  130.7038  133.2031  157.6610 H   0  0  0  0  0  0  0  0  0  0  0  0
  129.9961  134.7780  158.7488 C   0  0  1  0  0  0  0  0  0  0  0  0
  128.6572  134.1394  159.0145 C   0  0  0  0  0  0  0  0  0  0  0  0
  128.2337  133.2844  158.2657 O   0  0  0  0  0  0  0  0  0  0  0  0
  127.9301  134.5186  160.0842 N   0  0  0  0  0  0  0  0  0  0  0  0
  126.6870  133.9258  160.3308 C   0  0  0  0  0  0  0  0  0  0  0  0
  126.4517  132.6142  159.9377 C   0  0  0  0  0  0  0  0  0  0  0  0
  125.2245  132.0290  160.1812 C   0  0  0  0  0  0  0  0  0  0  0  0
  124.2301  132.7437  160.8221 C   0  0  0  0  0  0  0  0  0  0  0  0
  124.4576  134.0558  161.2119 C   0  0  0  0  0  0  0  0  0  0  0  0
  123.4769  134.7594  161.8366 O   0  0  0  0  0  0  0  0  0  0  0  0
  125.6878  134.6468  160.9689 C   0  0  0  0  0  0  0  0  0  0  0  0
  130.9126  134.5284  159.9188 C   0  0  0  0  0  0  0  0  0  0  0  0
  130.7682  133.3806  160.6767 C   0  0  0  0  0  0  0  0  0  0  0  0
  131.6107  133.1451  161.7475 C   0  0  0  0  0  0  0  0  0  0  0  0
  132.5923  134.0615  162.0706 C   0  0  0  0  0  0  0  0  0  0  0  0
  132.7363  135.2179  161.3150 C   0  0  0  0  0  0  0  0  0  0  0  0
  133.7275  136.1470  161.6392 N   0  0  0  0  0  0  0  0  0  0  0  0
  134.6169  135.9022  162.7774 C   0  0  0  0  0  0  0  0  0  0  0  0
  135.6030  137.0640  162.9133 C   0  0  2  0  0  0  0  0  0  0  0  0
  136.2253  137.1976  162.0283 H   0  0  0  0  0  0  0  0  0  0  0  0
  136.3984  137.0488  164.2312 C   0  0  0  0  0  0  0  0  0  0  0  0
  136.2023  138.5749  164.2825 C   0  0  2  0  0  0  0  0  0  0  0  0
  135.9110  139.0719  165.5902 O   0  0  0  0  0  0  0  0  0  0  0  0
  134.9615  138.3579  163.4157 C   0  0  0  0  0  0  0  0  0  0  0  0
  133.5598  138.3600  164.0267 C   0  0  0  0  0  0  0  0  0  0  0  0
  133.4266  139.8005  163.5003 C   0  0  0  0  0  0  0  0  0  0  0  0
  134.4807  139.4328  162.4402 C   0  0  0  0  0  0  0  0  0  0  0  0
  131.8919  135.4488  160.2362 C   0  0  0  0  0  0  0  0  0  0  0  0
  129.8660  135.8514  158.6116 H   0  0  0  0  0  0  0  0  0  0  0  0
  128.2688  135.2024  160.6830 H   0  0  0  0  0  0  0  0  0  0  0  0
  127.2286  132.0520  159.4410 H   0  0  0  0  0  0  0  0  0  0  0  0
  125.0432  131.0094  159.8746 H   0  0  0  0  0  0  0  0  0  0  0  0
  123.2732  132.2817  161.0158 H   0  0  0  0  0  0  0  0  0  0  0  0
  123.7287  135.6634  162.0693 H   0  0  0  0  0  0  0  0  0  0  0  0
  125.8683  135.6664  161.2758 H   0  0  0  0  0  0  0  0  0  0  0  0
  129.9985  132.6646  160.4291 H   0  0  0  0  0  0  0  0  0  0  0  0
  131.4982  132.2455  162.3346 H   0  0  0  0  0  0  0  0  0  0  0  0
  133.2474  133.8788  162.9097 H   0  0  0  0  0  0  0  0  0  0  0  0
  133.8272  136.9543  161.1108 H   0  0  0  0  0  0  0  0  0  0  0  0
  134.0256  135.8190  163.6894 H   0  0  0  0  0  0  0  0  0  0  0  0
  135.1674  134.9755  162.6156 H   0  0  0  0  0  0  0  0  0  0  0  0
  135.8945  136.5169  165.0384 H   0  0  0  0  0  0  0  0  0  0  0  0
  137.4386  136.7466  164.1093 H   0  0  0  0  0  0  0  0  0  0  0  0
  136.9928  139.1345  163.7825 H   0  0  0  0  0  0  0  0  0  0  0  0
  136.6882  139.1634  166.1583 H   0  0  0  0  0  0  0  0  0  0  0  0
  132.8751  137.6561  163.5536 H   0  0  0  0  0  0  0  0  0  0  0  0
  133.5568  138.2898  165.1146 H   0  0  0  0  0  0  0  0  0  0  0  0
  133.7656  140.5567  164.2083 H   0  0  0  0  0  0  0  0  0  0  0  0
  132.4456  140.0237  163.0807 H   0  0  0  0  0  0  0  0  0  0  0  0
  135.2132  140.2197  162.2604 H   0  0  0  0  0  0  0  0  0  0  0  0
  134.0548  139.0305  161.5210 H   0  0  0  0  0  0  0  0  0  0  0  0
  132.0013  136.3468  159.6465 H   0  0  0  0  0  0  0  0  0  0  0  0
  1  2  1  0
  1  3  1  0
  1  4  1  0
  1  5  1  0
  5  6  1  0
  5 16  1  0
  5 33  1  6
  6  7  2  0
  6  8  1  0
  8  9  1  0
  8 34  1  0
  9 15  1  0
  9 10  2  0
 10 11  1  0
 10 35  1  0
 11 12  2  0
 11 36  1  0
 12 13  1  0
 12 37  1  0
 13 14  1  0
 13 15  2  0
 14 38  1  0
 15 39  1  0
 16 32  1  0
 16 17  2  0
 17 18  1  0
 17 40  1  0
 18 19  2  0
 18 41  1  0
 19 20  1  0
 19 42  1  0
 20 21  1  0
 20 32  2  0
 21 22  1  0
 21 43  1  0
 22 23  1  0
 22 44  1  0
 22 45  1  0
 23 24  1  6
 23 28  1  0
 23 25  1  0
 25 26  1  0
 25 46  1  0
 25 47  1  0
 26 27  1  0
 26 28  1  0
 26 48  1  6
 27 49  1  0
 28 31  1  0
 28 29  1  0
 29 30  1  0
 29 50  1  0
 29 51  1  0
 30 31  1  0
 30 52  1  0
 30 53  1  0
 31 54  1  0
 31 55  1  0
 32 56  1  0
M  CHG  1   1   1
M  END
>  <DOCK_score>  (1) 
-44.694672

>  <SMILES>  (1) 
[NH3+]C(C(=O)Nc1cccc(O)c1)c1cccc(NC[C@@H]2CC(O)C23CCC3)c1

$$$$
