CCc1ccc(-c2c[nH]c(N[C@H](C3=CCCC3)c3cccc(C)c3CBr)[nH+]2)cc1
     RDKit          3D

 58 61  0  0  1  0  0  0  0  0999 V2000
  130.3271  128.3928  151.6190 C   0  0  0  0  0  0  0  0  0  0  0  0
  131.2976  129.5645  151.7795 C   0  0  0  0  0  0  0  0  0  0  0  0
  131.0254  130.2673  153.0846 C   0  0  0  0  0  0  0  0  0  0  0  0
  131.6830  129.8661  154.2330 C   0  0  0  0  0  0  0  0  0  0  0  0
  131.4421  130.5096  155.4300 C   0  0  0  0  0  0  0  0  0  0  0  0
  130.5255  131.5582  155.4821 C   0  0  0  0  0  0  0  0  0  0  0  0
  130.2581  132.2500  156.7667 C   0  0  0  0  0  0  0  0  0  0  0  0
  129.7833  131.6748  157.8993 C   0  0  0  0  0  0  0  0  0  0  0  0
  129.6858  132.6700  158.8412 N   0  0  0  0  0  0  0  0  0  0  0  0
  129.3757  132.5681  159.7545 H   0  0  0  0  0  0  0  0  0  0  0  0
  130.1044  133.8253  158.2561 C   0  0  0  0  0  0  0  0  0  0  0  0
  130.1604  135.0653  158.8691 N   0  0  0  0  0  0  0  0  0  0  0  0
  129.7467  135.2107  160.2670 C   0  0  2  0  0  0  0  0  0  0  0  0
  130.0974  134.3530  160.8407 H   0  0  0  0  0  0  0  0  0  0  0  0
  128.2433  135.2840  160.3408 C   0  0  0  0  0  0  0  0  0  0  0  0
  127.4808  135.7731  159.4013 C   0  0  0  0  0  0  0  0  0  0  0  0
  126.0224  135.6972  159.7892 C   0  0  0  0  0  0  0  0  0  0  0  0
  126.0341  135.4568  161.3168 C   0  0  0  0  0  0  0  0  0  0  0  0
  127.4202  134.7949  161.5099 C   0  0  0  0  0  0  0  0  0  0  0  0
  130.3397  136.4733  160.8375 C   0  0  0  0  0  0  0  0  0  0  0  0
  129.5113  137.4686  161.3218 C   0  0  0  0  0  0  0  0  0  0  0  0
  130.0554  138.6246  161.8495 C   0  0  0  0  0  0  0  0  0  0  0  0
  131.4277  138.7895  161.8838 C   0  0  0  0  0  0  0  0  0  0  0  0
  132.2555  137.7970  161.3945 C   0  0  0  0  0  0  0  0  0  0  0  0
  133.7512  137.9772  161.4314 C   0  0  0  0  0  0  0  0  0  0  0  0
  131.7114  136.6386  160.8714 C   0  0  0  0  0  0  0  0  0  0  0  0
  132.6142  135.5563  160.3378 C   0  0  0  0  0  0  0  0  0  0  0  0
  133.0598  134.3021  161.7847 Br  0  0  0  0  0  0  0  0  0  0  0  0
  130.4510  133.5692  157.0183 N   0  0  0  0  0  0  0  0  0  0  0  0
  130.7892  134.2195  156.3829 H   0  0  0  0  0  0  0  0  0  0  0  0
  129.8614  131.9547  154.3227 C   0  0  0  0  0  0  0  0  0  0  0  0
  130.1144  131.3078  153.1302 C   0  0  0  0  0  0  0  0  0  0  0  0
  130.5238  127.8847  150.6751 H   0  0  0  0  0  0  0  0  0  0  0  0
  130.4636  127.6931  152.4436 H   0  0  0  0  0  0  0  0  0  0  0  0
  129.3028  128.7655  151.6246 H   0  0  0  0  0  0  0  0  0  0  0  0
  132.3214  129.1924  151.7736 H   0  0  0  0  0  0  0  0  0  0  0  0
  131.1607  130.2648  150.9545 H   0  0  0  0  0  0  0  0  0  0  0  0
  132.3896  129.0503  154.1924 H   0  0  0  0  0  0  0  0  0  0  0  0
  131.9597  130.1985  156.3253 H   0  0  0  0  0  0  0  0  0  0  0  0
  129.5300  130.6337  158.0347 H   0  0  0  0  0  0  0  0  0  0  0  0
  130.4737  135.8378  158.3731 H   0  0  0  0  0  0  0  0  0  0  0  0
  127.8446  136.1790  158.4688 H   0  0  0  0  0  0  0  0  0  0  0  0
  125.5183  136.6351  159.5564 H   0  0  0  0  0  0  0  0  0  0  0  0
  125.5362  134.8665  159.2779 H   0  0  0  0  0  0  0  0  0  0  0  0
  125.9667  136.3983  161.8615 H   0  0  0  0  0  0  0  0  0  0  0  0
  125.2344  134.7774  161.6121 H   0  0  0  0  0  0  0  0  0  0  0  0
  127.3321  133.7088  161.4842 H   0  0  0  0  0  0  0  0  0  0  0  0
  127.8665  135.1184  162.4503 H   0  0  0  0  0  0  0  0  0  0  0  0
  128.4393  137.3414  161.2913 H   0  0  0  0  0  0  0  0  0  0  0  0
  129.4084  139.4004  162.2316 H   0  0  0  0  0  0  0  0  0  0  0  0
  131.8528  139.6942  162.2927 H   0  0  0  0  0  0  0  0  0  0  0  0
  134.0826  138.4548  160.5093 H   0  0  0  0  0  0  0  0  0  0  0  0
  134.0208  138.6032  162.2819 H   0  0  0  0  0  0  0  0  0  0  0  0
  134.2321  137.0040  161.5296 H   0  0  0  0  0  0  0  0  0  0  0  0
  132.1051  135.0207  159.5365 H   0  0  0  0  0  0  0  0  0  0  0  0
  133.5293  136.0046  159.9509 H   0  0  0  0  0  0  0  0  0  0  0  0
  129.1499  132.7666  154.3574 H   0  0  0  0  0  0  0  0  0  0  0  0
  129.6001  131.6140  152.2312 H   0  0  0  0  0  0  0  0  0  0  0  0
  1  2  1  0
  1 33  1  0
  1 34  1  0
  1 35  1  0
  2  3  1  0
  2 36  1  0
  2 37  1  0
  3 32  2  0
  3  4  1  0
  4  5  2  0
  4 38  1  0
  5  6  1  0
  5 39  1  0
  6  7  1  0
  6 31  2  0
  7 29  1  0
  7  8  2  0
  8  9  1  0
  8 40  1  0
  9 10  1  0
  9 11  1  0
 11 12  1  0
 11 29  2  0
 12 13  1  0
 12 41  1  0
 13 14  1  1
 13 15  1  0
 13 20  1  0
 15 19  1  0
 15 16  2  0
 16 17  1  0
 16 42  1  0
 17 18  1  0
 17 43  1  0
 17 44  1  0
 18 19  1  0
 18 45  1  0
 18 46  1  0
 19 47  1  0
 19 48  1  0
 20 26  1  0
 20 21  2  0
 21 22  1  0
 21 49  1  0
 22 23  2  0
 22 50  1  0
 23 24  1  0
 23 51  1  0
 24 25  1  0
 24 26  2  0
 25 52  1  0
 25 53  1  0
 25 54  1  0
 26 27  1  0
 27 28  1  0
 27 55  1  0
 27 56  1  0
 29 30  1  0
 31 32  1  0
 31 57  1  0
 32 58  1  0
M  CHG  1  29   1
M  END
>  <DOCK_score>  (1) 
-61.231689

>  <SMILES>  (1) 
CCc1ccc(-c2c[nH]c(N[C@H](C3=CCCC3)c3cccc(C)c3CBr)[nH+]2)cc1

$$$$
