Clc1ccc2c(c1)OCC([NH+]=C(NC1CCCCCC1)N[C@H]1CCc3ccccc3C1)C2
     RDKit          3D

 67 71  0  0  1  0  0  0  0  0999 V2000
  126.0902  141.8922  165.4204 Cl  0  0  0  0  0  0  0  0  0  0  0  0
  127.0840  140.7502  164.5709 C   0  0  0  0  0  0  0  0  0  0  0  0
  128.4578  140.9156  164.5401 C   0  0  0  0  0  0  0  0  0  0  0  0
  129.2474  140.0051  163.8661 C   0  0  0  0  0  0  0  0  0  0  0  0
  128.6718  138.9238  163.2194 C   0  0  0  0  0  0  0  0  0  0  0  0
  127.2982  138.7574  163.2448 C   0  0  0  0  0  0  0  0  0  0  0  0
  126.5054  139.6727  163.9299 C   0  0  0  0  0  0  0  0  0  0  0  0
  126.6912  137.7180  162.6149 O   0  0  0  0  0  0  0  0  0  0  0  0
  127.4973  136.5971  162.2492 C   0  0  0  0  0  0  0  0  0  0  0  0
  128.7426  137.1148  161.5183 C   0  0  2  0  0  0  0  0  0  0  0  0
  129.5387  135.9831  161.0370 N   0  0  0  0  0  0  0  0  0  0  0  0
  129.2413  135.0750  161.2040 H   0  0  0  0  0  0  0  0  0  0  0  0
  130.6466  136.1964  160.3843 C   0  0  0  0  0  0  0  0  0  0  0  0
  131.3936  135.1343  159.9327 N   0  0  0  0  0  0  0  0  0  0  0  0
  130.7353  133.8761  159.5728 C   0  0  0  0  0  0  0  0  0  0  0  0
  131.2410  132.7615  160.5114 C   0  0  0  0  0  0  0  0  0  0  0  0
  130.2382  131.6386  160.5027 C   0  0  0  0  0  0  0  0  0  0  0  0
  130.5930  130.5419  159.4803 C   0  0  0  0  0  0  0  0  0  0  0  0
  131.0934  131.1139  158.1401 C   0  0  0  0  0  0  0  0  0  0  0  0
  130.2942  132.3062  157.6888 C   0  0  0  0  0  0  0  0  0  0  0  0
  131.0069  133.5856  158.1728 C   0  0  0  0  0  0  0  0  0  0  0  0
  131.0680  137.4834  160.1474 N   0  0  0  0  0  0  0  0  0  0  0  0
  132.4992  137.7777  160.0412 C   0  0  1  0  0  0  0  0  0  0  0  0
  133.0248  136.9072  159.6490 H   0  0  0  0  0  0  0  0  0  0  0  0
  132.7123  138.9747  159.1071 C   0  0  0  0  0  0  0  0  0  0  0  0
  134.2081  139.1052  158.8260 C   0  0  0  0  0  0  0  0  0  0  0  0
  134.9904  139.1080  160.1133 C   0  0  0  0  0  0  0  0  0  0  0  0
  136.2949  139.5839  160.0763 C   0  0  0  0  0  0  0  0  0  0  0  0
  137.0659  139.6062  161.2198 C   0  0  0  0  0  0  0  0  0  0  0  0
  136.5363  139.1517  162.4135 C   0  0  0  0  0  0  0  0  0  0  0  0
  135.2403  138.6812  162.4529 C   0  0  0  0  0  0  0  0  0  0  0  0
  134.4620  138.6593  161.3026 C   0  0  0  0  0  0  0  0  0  0  0  0
  133.0541  138.1363  161.4183 C   0  0  0  0  0  0  0  0  0  0  0  0
  129.5683  137.9454  162.5037 C   0  0  0  0  0  0  0  0  0  0  0  0
  128.9122  141.7562  165.0434 H   0  0  0  0  0  0  0  0  0  0  0  0
  130.3192  140.1364  163.8434 H   0  0  0  0  0  0  0  0  0  0  0  0
  125.4336  139.5417  163.9578 H   0  0  0  0  0  0  0  0  0  0  0  0
  127.7969  136.0526  163.1447 H   0  0  0  0  0  0  0  0  0  0  0  0
  126.9321  135.9380  161.5902 H   0  0  0  0  0  0  0  0  0  0  0  0
  128.4418  137.7371  160.6754 H   0  0  0  0  0  0  0  0  0  0  0  0
  132.3567  135.2182  159.8521 H   0  0  0  0  0  0  0  0  0  0  0  0
  129.6596  133.9899  159.7074 H   0  0  0  0  0  0  0  0  0  0  0  0
  132.2056  132.3958  160.1592 H   0  0  0  0  0  0  0  0  0  0  0  0
  131.3420  133.1530  161.5236 H   0  0  0  0  0  0  0  0  0  0  0  0
  129.2561  132.0436  160.2587 H   0  0  0  0  0  0  0  0  0  0  0  0
  130.1987  131.1942  161.4971 H   0  0  0  0  0  0  0  0  0  0  0  0
  129.7072  129.9347  159.2945 H   0  0  0  0  0  0  0  0  0  0  0  0
  131.3704  129.9055  159.9031 H   0  0  0  0  0  0  0  0  0  0  0  0
  131.0280  130.3367  157.3786 H   0  0  0  0  0  0  0  0  0  0  0  0
  132.1366  131.4098  158.2505 H   0  0  0  0  0  0  0  0  0  0  0  0
  129.2934  132.2600  158.1180 H   0  0  0  0  0  0  0  0  0  0  0  0
  130.2290  132.3128  156.6007 H   0  0  0  0  0  0  0  0  0  0  0  0
  130.6722  134.4271  157.5663 H   0  0  0  0  0  0  0  0  0  0  0  0
  132.0818  133.4625  158.0399 H   0  0  0  0  0  0  0  0  0  0  0  0
  130.4176  138.1966  160.0505 H   0  0  0  0  0  0  0  0  0  0  0  0
  132.1761  138.8110  158.1724 H   0  0  0  0  0  0  0  0  0  0  0  0
  132.3477  139.8836  159.5859 H   0  0  0  0  0  0  0  0  0  0  0  0
  134.3935  140.0365  158.2906 H   0  0  0  0  0  0  0  0  0  0  0  0
  134.5321  138.2660  158.2103 H   0  0  0  0  0  0  0  0  0  0  0  0
  136.7091  139.9392  159.1441 H   0  0  0  0  0  0  0  0  0  0  0  0
  138.0792  139.9776  161.1830 H   0  0  0  0  0  0  0  0  0  0  0  0
  137.1355  139.1651  163.3119 H   0  0  0  0  0  0  0  0  0  0  0  0
  134.8276  138.3263  163.3857 H   0  0  0  0  0  0  0  0  0  0  0  0
  132.4231  138.9005  161.8722 H   0  0  0  0  0  0  0  0  0  0  0  0
  133.0521  137.2474  162.0492 H   0  0  0  0  0  0  0  0  0  0  0  0
  130.3400  138.4910  161.9607 H   0  0  0  0  0  0  0  0  0  0  0  0
  130.0373  137.2836  163.2319 H   0  0  0  0  0  0  0  0  0  0  0  0
  1  2  1  0
  2  7  2  0
  2  3  1  0
  3  4  2  0
  3 35  1  0
  4  5  1  0
  4 36  1  0
  5 34  1  0
  5  6  2  0
  6  7  1  0
  6  8  1  0
  7 37  1  0
  8  9  1  0
  9 10  1  0
  9 38  1  0
  9 39  1  0
 10 11  1  0
 10 34  1  0
 10 40  1  6
 11 12  1  0
 13 11  2  0
 13 14  1  0
 13 22  1  0
 14 15  1  0
 14 41  1  0
 15 21  1  0
 15 16  1  0
 15 42  1  0
 16 17  1  0
 16 43  1  0
 16 44  1  0
 17 18  1  0
 17 45  1  0
 17 46  1  0
 18 19  1  0
 18 47  1  0
 18 48  1  0
 19 20  1  0
 19 49  1  0
 19 50  1  0
 20 21  1  0
 20 51  1  0
 20 52  1  0
 21 53  1  0
 21 54  1  0
 22 23  1  0
 22 55  1  0
 23 24  1  6
 23 33  1  0
 23 25  1  0
 25 26  1  0
 25 56  1  0
 25 57  1  0
 26 27  1  0
 26 58  1  0
 26 59  1  0
 27 32  2  0
 27 28  1  0
 28 29  2  0
 28 60  1  0
 29 30  1  0
 29 61  1  0
 30 31  2  0
 30 62  1  0
 31 32  1  0
 31 63  1  0
 32 33  1  0
 33 64  1  0
 33 65  1  0
 34 66  1  0
 34 67  1  0
M  CHG  1  11   1
M  END
>  <DOCK_score>  (1) 
-47.961784

>  <SMILES>  (1) 
Clc1ccc2c(c1)OCC([NH+]=C(NC1CCCCCC1)N[C@H]1CCc3ccccc3C1)C2

$$$$
