CCC#CCNc1c[nH]c(N[C@H](c2ccccc2)c2ccc(C)cc2)[nH+]1
     RDKit          3D

 51 53  0  0  1  0  0  0  0  0999 V2000
  130.6376  127.9717  151.9268 C   0  0  0  0  0  0  0  0  0  0  0  0
  131.8833  128.8241  152.1776 C   0  0  0  0  0  0  0  0  0  0  0  0
  131.5626  129.8901  153.1407 C   0  0  0  0  0  0  0  0  0  0  0  0
  131.3068  130.7404  153.9089 C   0  0  0  0  0  0  0  0  0  0  0  0
  130.9862  131.8064  154.8720 C   0  0  0  0  0  0  0  0  0  0  0  0
  130.5421  131.2077  156.1331 N   0  0  0  0  0  0  0  0  0  0  0  0
  130.1787  132.0306  157.2113 C   0  0  0  0  0  0  0  0  0  0  0  0
  129.4105  131.6675  158.2597 C   0  0  0  0  0  0  0  0  0  0  0  0
  129.3057  132.7759  159.0806 N   0  0  0  0  0  0  0  0  0  0  0  0
  128.8164  132.8307  159.9164 H   0  0  0  0  0  0  0  0  0  0  0  0
  130.0188  133.7735  158.4941 C   0  0  0  0  0  0  0  0  0  0  0  0
  130.1727  135.0568  158.9911 N   0  0  0  0  0  0  0  0  0  0  0  0
  129.1139  135.6589  159.8053 C   0  0  2  0  0  0  0  0  0  0  0  0
  128.9487  135.0503  160.6943 H   0  0  0  0  0  0  0  0  0  0  0  0
  127.8413  135.7300  159.0014 C   0  0  0  0  0  0  0  0  0  0  0  0
  126.6165  135.6489  159.6375 C   0  0  0  0  0  0  0  0  0  0  0  0
  125.4491  135.7184  158.9006 C   0  0  0  0  0  0  0  0  0  0  0  0
  125.5063  135.8598  157.5267 C   0  0  0  0  0  0  0  0  0  0  0  0
  126.7310  135.9359  156.8901 C   0  0  0  0  0  0  0  0  0  0  0  0
  127.8985  135.8707  157.6275 C   0  0  0  0  0  0  0  0  0  0  0  0
  129.5261  137.0487  160.2173 C   0  0  0  0  0  0  0  0  0  0  0  0
  129.7919  138.0048  159.2550 C   0  0  0  0  0  0  0  0  0  0  0  0
  130.1649  139.2810  159.6331 C   0  0  0  0  0  0  0  0  0  0  0  0
  130.2831  139.5979  160.9734 C   0  0  0  0  0  0  0  0  0  0  0  0
  130.6956  140.9875  161.3855 C   0  0  0  0  0  0  0  0  0  0  0  0
  130.0224  138.6404  161.9357 C   0  0  0  0  0  0  0  0  0  0  0  0
  129.6439  137.3658  161.5577 C   0  0  0  0  0  0  0  0  0  0  0  0
  130.5323  133.3187  157.3750 N   0  0  0  0  0  0  0  0  0  0  0  0
  131.0829  133.8308  156.7623 H   0  0  0  0  0  0  0  0  0  0  0  0
  130.3072  127.5263  152.8652 H   0  0  0  0  0  0  0  0  0  0  0  0
  129.8432  128.5994  151.5230 H   0  0  0  0  0  0  0  0  0  0  0  0
  130.8750  127.1824  151.2137 H   0  0  0  0  0  0  0  0  0  0  0  0
  132.2137  129.2695  151.2393 H   0  0  0  0  0  0  0  0  0  0  0  0
  132.6776  128.1965  152.5814 H   0  0  0  0  0  0  0  0  0  0  0  0
  130.1917  132.4339  154.4681 H   0  0  0  0  0  0  0  0  0  0  0  0
  131.8736  132.4136  155.0506 H   0  0  0  0  0  0  0  0  0  0  0  0
  130.4992  130.2429  156.2234 H   0  0  0  0  0  0  0  0  0  0  0  0
  128.9641  130.6983  158.4260 H   0  0  0  0  0  0  0  0  0  0  0  0
  130.9815  135.5571  158.8002 H   0  0  0  0  0  0  0  0  0  0  0  0
  126.5719  135.5344  160.7105 H   0  0  0  0  0  0  0  0  0  0  0  0
  124.4922  135.6594  159.3980 H   0  0  0  0  0  0  0  0  0  0  0  0
  124.5942  135.9116  156.9506 H   0  0  0  0  0  0  0  0  0  0  0  0
  126.7757  136.0465  155.8167 H   0  0  0  0  0  0  0  0  0  0  0  0
  128.8553  135.9300  157.1301 H   0  0  0  0  0  0  0  0  0  0  0  0
  129.7042  137.7557  158.2077 H   0  0  0  0  0  0  0  0  0  0  0  0
  130.3681  140.0292  158.8813 H   0  0  0  0  0  0  0  0  0  0  0  0
  131.7816  141.0353  161.4663 H   0  0  0  0  0  0  0  0  0  0  0  0
  130.3550  141.7043  160.6383 H   0  0  0  0  0  0  0  0  0  0  0  0
  130.2487  141.2282  162.3501 H   0  0  0  0  0  0  0  0  0  0  0  0
  130.1147  138.8879  162.9828 H   0  0  0  0  0  0  0  0  0  0  0  0
  129.4405  136.6176  162.3095 H   0  0  0  0  0  0  0  0  0  0  0  0
  1  2  1  0
  1 30  1  0
  1 31  1  0
  1 32  1  0
  2  3  1  0
  2 33  1  0
  2 34  1  0
  3  4  3  0
  4  5  1  0
  5  6  1  0
  5 35  1  0
  5 36  1  0
  6  7  1  0
  6 37  1  0
  7 28  1  0
  7  8  2  0
  8  9  1  0
  8 38  1  0
  9 10  1  0
  9 11  1  0
 11 12  1  0
 11 28  2  0
 12 13  1  0
 12 39  1  0
 13 14  1  1
 13 15  1  0
 13 21  1  0
 15 20  1  0
 15 16  2  0
 16 17  1  0
 16 40  1  0
 17 18  2  0
 17 41  1  0
 18 19  1  0
 18 42  1  0
 19 20  2  0
 19 43  1  0
 20 44  1  0
 21 27  1  0
 21 22  2  0
 22 23  1  0
 22 45  1  0
 23 24  2  0
 23 46  1  0
 24 25  1  0
 24 26  1  0
 25 47  1  0
 25 48  1  0
 25 49  1  0
 26 27  2  0
 26 50  1  0
 27 51  1  0
 28 29  1  0
M  CHG  1  28   1
M  END
>  <DOCK_score>  (1) 
-59.449253

>  <SMILES>  (1) 
CCC#CCNc1c[nH]c(N[C@H](c2ccccc2)c2ccc(C)cc2)[nH+]1

$$$$
