Cc1ccc(F)cc1CCNC(=O)c1nn(C2CCOCC2)cc1C[NH2+][C@H](CO)C1CCC1
     RDKit          3D

 69 72  0  0  1  0  0  0  0  0999 V2000
  134.8074  138.9696  163.2096 C   0  0  0  0  0  0  0  0  0  0  0  0
  135.2536  139.8901  162.1031 C   0  0  0  0  0  0  0  0  0  0  0  0
  135.8999  141.0739  162.4077 C   0  0  0  0  0  0  0  0  0  0  0  0
  136.3100  141.9186  161.3941 C   0  0  0  0  0  0  0  0  0  0  0  0
  136.0730  141.5794  160.0725 C   0  0  0  0  0  0  0  0  0  0  0  0
  136.4734  142.4045  159.0805 F   0  0  0  0  0  0  0  0  0  0  0  0
  135.4308  140.3912  159.7684 C   0  0  0  0  0  0  0  0  0  0  0  0
  135.0170  139.5503  160.7843 C   0  0  0  0  0  0  0  0  0  0  0  0
  134.3130  138.2594  160.4539 C   0  0  0  0  0  0  0  0  0  0  0  0
  132.8035  138.5024  160.3950 C   0  0  0  0  0  0  0  0  0  0  0  0
  132.1191  137.2476  160.0738 N   0  0  0  0  0  0  0  0  0  0  0  0
  131.2174  136.7327  160.9330 C   0  0  0  0  0  0  0  0  0  0  0  0
  130.9718  137.3097  161.9744 O   0  0  0  0  0  0  0  0  0  0  0  0
  130.5273  135.4676  160.6091 C   0  0  0  0  0  0  0  0  0  0  0  0
  130.6957  134.7376  159.5245 N   0  0  0  0  0  0  0  0  0  0  0  0
  129.9317  133.7055  159.5647 N   0  0  0  0  0  0  0  0  0  0  0  0
  129.8533  132.6800  158.5215 C   0  0  0  0  0  0  0  0  0  0  0  0
  130.8788  131.5786  158.8076 C   0  0  0  0  0  0  0  0  0  0  0  0
  130.8444  130.5526  157.6718 C   0  0  0  0  0  0  0  0  0  0  0  0
  131.1098  131.2091  156.4305 O   0  0  0  0  0  0  0  0  0  0  0  0
  130.1562  132.2167  156.0877 C   0  0  0  0  0  0  0  0  0  0  0  0
  130.1630  133.3095  157.1598 C   0  0  0  0  0  0  0  0  0  0  0  0
  129.2109  133.7023  160.7065 C   0  0  0  0  0  0  0  0  0  0  0  0
  129.5620  134.8071  161.4055 C   0  0  0  0  0  0  0  0  0  0  0  0
  129.0318  135.2448  162.7465 C   0  0  0  0  0  0  0  0  0  0  0  0
  128.7247  136.6807  162.7065 N   0  0  0  0  0  0  0  0  0  0  0  0
  128.0297  136.8564  161.9964 H   0  0  0  0  0  0  0  0  0  0  0  0
  129.5636  137.1984  162.4913 H   0  0  0  0  0  0  0  0  0  0  0  0
  128.2077  137.1075  164.0137 C   0  0  2  0  0  0  0  0  0  0  0  0
  127.5416  136.3406  164.4089 H   0  0  0  0  0  0  0  0  0  0  0  0
  127.4369  138.4195  163.8538 C   0  0  0  0  0  0  0  0  0  0  0  0
  126.6695  138.3772  162.6490 O   0  0  0  0  0  0  0  0  0  0  0  0
  129.3751  137.3164  164.9803 C   0  0  0  0  0  0  0  0  0  0  0  0
  129.8726  136.0172  165.6355 C   0  0  0  0  0  0  0  0  0  0  0  0
  130.0224  136.8233  166.9364 C   0  0  0  0  0  0  0  0  0  0  0  0
  128.9400  137.7672  166.3865 C   0  0  0  0  0  0  0  0  0  0  0  0
  135.6055  138.2633  163.4386 H   0  0  0  0  0  0  0  0  0  0  0  0
  134.5749  139.5560  164.0985 H   0  0  0  0  0  0  0  0  0  0  0  0
  133.9192  138.4235  162.8920 H   0  0  0  0  0  0  0  0  0  0  0  0
  136.0846  141.3383  163.4385 H   0  0  0  0  0  0  0  0  0  0  0  0
  136.8153  142.8428  161.6322 H   0  0  0  0  0  0  0  0  0  0  0  0
  135.2499  140.1233  158.7379 H   0  0  0  0  0  0  0  0  0  0  0  0
  134.5321  137.5189  161.2232 H   0  0  0  0  0  0  0  0  0  0  0  0
  134.6601  137.8934  159.4877 H   0  0  0  0  0  0  0  0  0  0  0  0
  132.5845  139.2430  159.6257 H   0  0  0  0  0  0  0  0  0  0  0  0
  132.4564  138.8686  161.3612 H   0  0  0  0  0  0  0  0  0  0  0  0
  132.3151  136.7872  159.2428 H   0  0  0  0  0  0  0  0  0  0  0  0
  128.8511  132.2517  158.5058 H   0  0  0  0  0  0  0  0  0  0  0  0
  131.8748  132.0165  158.8729 H   0  0  0  0  0  0  0  0  0  0  0  0
  130.6331  131.0879  159.7493 H   0  0  0  0  0  0  0  0  0  0  0  0
  129.8600  130.0861  157.6331 H   0  0  0  0  0  0  0  0  0  0  0  0
  131.6021  129.7892  157.8486 H   0  0  0  0  0  0  0  0  0  0  0  0
  129.1629  131.7719  156.0283 H   0  0  0  0  0  0  0  0  0  0  0  0
  130.4181  132.6520  155.1234 H   0  0  0  0  0  0  0  0  0  0  0  0
  129.4054  134.0566  156.9232 H   0  0  0  0  0  0  0  0  0  0  0  0
  131.1441  133.7833  157.1923 H   0  0  0  0  0  0  0  0  0  0  0  0
  128.4891  132.9569  161.0065 H   0  0  0  0  0  0  0  0  0  0  0  0
  129.7827  135.0550  163.5136 H   0  0  0  0  0  0  0  0  0  0  0  0
  128.1255  134.6857  162.9790 H   0  0  0  0  0  0  0  0  0  0  0  0
  126.7696  138.5549  164.7050 H   0  0  0  0  0  0  0  0  0  0  0  0
  128.1403  139.2509  163.8076 H   0  0  0  0  0  0  0  0  0  0  0  0
  126.0215  137.6602  162.6205 H   0  0  0  0  0  0  0  0  0  0  0  0
  130.1735  137.9242  164.5544 H   0  0  0  0  0  0  0  0  0  0  0  0
  130.8198  135.6596  165.2319 H   0  0  0  0  0  0  0  0  0  0  0  0
  129.1131  135.2372  165.6900 H   0  0  0  0  0  0  0  0  0  0  0  0
  129.7132  136.2763  167.8271 H   0  0  0  0  0  0  0  0  0  0  0  0
  130.9984  137.2957  167.0475 H   0  0  0  0  0  0  0  0  0  0  0  0
  127.9252  137.4667  166.6470 H   0  0  0  0  0  0  0  0  0  0  0  0
  129.1355  138.8204  166.5885 H   0  0  0  0  0  0  0  0  0  0  0  0
  1  2  1  0
  1 37  1  0
  1 38  1  0
  1 39  1  0
  2  8  2  0
  2  3  1  0
  3  4  2  0
  3 40  1  0
  4  5  1  0
  4 41  1  0
  5  6  1  0
  5  7  2  0
  7  8  1  0
  7 42  1  0
  8  9  1  0
  9 10  1  0
  9 43  1  0
  9 44  1  0
 10 11  1  0
 10 45  1  0
 10 46  1  0
 11 12  1  0
 11 47  1  0
 12 13  2  0
 12 14  1  0
 14 24  1  0
 14 15  2  0
 15 16  1  0
 16 17  1  0
 16 23  1  0
 17 22  1  0
 17 18  1  0
 17 48  1  0
 18 19  1  0
 18 49  1  0
 18 50  1  0
 19 20  1  0
 19 51  1  0
 19 52  1  0
 20 21  1  0
 21 22  1  0
 21 53  1  0
 21 54  1  0
 22 55  1  0
 22 56  1  0
 23 24  2  0
 23 57  1  0
 24 25  1  0
 25 26  1  0
 25 58  1  0
 25 59  1  0
 26 27  1  0
 26 28  1  0
 26 29  1  0
 29 30  1  1
 29 31  1  0
 29 33  1  0
 31 32  1  0
 31 60  1  0
 31 61  1  0
 32 62  1  0
 33 36  1  0
 33 34  1  0
 33 63  1  0
 34 35  1  0
 34 64  1  0
 34 65  1  0
 35 36  1  0
 35 66  1  0
 35 67  1  0
 36 68  1  0
 36 69  1  0
M  CHG  1  26   1
M  END
>  <DOCK_score>  (1) 
-42.428734

>  <SMILES>  (1) 
Cc1ccc(F)cc1CCNC(=O)c1nn(C2CCOCC2)cc1C[NH2+][C@H](CO)C1CCC1

$$$$
