O=C1CC[C@H]([NH+]=C(NC2CC3CC3C2)N[C@H]2CC=C(C3CC3)C2)CN1
     RDKit          3D

 56 60  0  0  1  0  0  0  0  0999 V2000
  124.1701  133.6845  160.8757 O   0  0  0  0  0  0  0  0  0  0  0  0
  125.3374  133.9285  160.6547 C   0  0  0  0  0  0  0  0  0  0  0  0
  126.2297  132.8007  160.2219 C   0  0  0  0  0  0  0  0  0  0  0  0
  127.6964  133.1933  160.4156 C   0  0  0  0  0  0  0  0  0  0  0  0
  127.9129  134.5798  159.7975 C   0  0  2  0  0  0  0  0  0  0  0  0
  127.5454  134.5843  158.7713 H   0  0  0  0  0  0  0  0  0  0  0  0
  129.3407  134.9073  159.8130 N   0  0  0  0  0  0  0  0  0  0  0  0
  129.6537  135.6900  160.2931 H   0  0  0  0  0  0  0  0  0  0  0  0
  130.1906  134.1470  159.1818 C   0  0  0  0  0  0  0  0  0  0  0  0
  131.4814  134.0302  159.6407 N   0  0  0  0  0  0  0  0  0  0  0  0
  131.9014  134.7603  160.8393 C   0  0  2  0  0  0  0  0  0  0  0  0
  132.6007  136.0883  160.4563 C   0  0  0  0  0  0  0  0  0  0  0  0
  133.4914  136.4101  161.6765 C   0  0  1  0  0  0  0  0  0  0  0  0
  132.9161  136.1660  163.0731 C   0  0  0  0  0  0  0  0  0  0  0  0
  133.7511  135.0761  162.3981 C   0  0  1  0  0  0  0  0  0  0  0  0
  133.0137  133.9878  161.5910 C   0  0  0  0  0  0  0  0  0  0  0  0
  129.7966  133.4619  158.0568 N   0  0  0  0  0  0  0  0  0  0  0  0
  130.7518  132.6075  157.3472 C   0  0  1  0  0  0  0  0  0  0  0  0
  131.7680  132.9861  157.4560 H   0  0  0  0  0  0  0  0  0  0  0  0
  130.6501  131.1417  157.8294 C   0  0  0  0  0  0  0  0  0  0  0  0
  130.8573  130.3123  156.5834 C   0  0  0  0  0  0  0  0  0  0  0  0
  130.7039  131.0345  155.5071 C   0  0  0  0  0  0  0  0  0  0  0  0
  130.8423  130.5095  154.1014 C   0  0  0  0  0  0  0  0  0  0  0  0
  130.8304  131.5302  152.9617 C   0  0  0  0  0  0  0  0  0  0  0  0
  129.6226  130.6165  153.1839 C   0  0  0  0  0  0  0  0  0  0  0  0
  130.3687  132.4661  155.8557 C   0  0  0  0  0  0  0  0  0  0  0  0
  127.1413  135.6099  160.6233 C   0  0  0  0  0  0  0  0  0  0  0  0
  125.7598  135.1840  160.8086 N   0  0  0  0  0  0  0  0  0  0  0  0
  126.0099  131.9156  160.8190 H   0  0  0  0  0  0  0  0  0  0  0  0
  126.0498  132.5800  159.1698 H   0  0  0  0  0  0  0  0  0  0  0  0
  128.3394  132.4661  159.9199 H   0  0  0  0  0  0  0  0  0  0  0  0
  127.9299  133.2253  161.4798 H   0  0  0  0  0  0  0  0  0  0  0  0
  132.1138  133.4644  159.1709 H   0  0  0  0  0  0  0  0  0  0  0  0
  131.0504  134.9468  161.4942 H   0  0  0  0  0  0  0  0  0  0  0  0
  133.2125  135.9538  159.5642 H   0  0  0  0  0  0  0  0  0  0  0  0
  131.8639  136.8761  160.2995 H   0  0  0  0  0  0  0  0  0  0  0  0
  134.2832  137.1481  161.5473 H   0  0  0  0  0  0  0  0  0  0  0  0
  131.8418  135.9997  163.1521 H   0  0  0  0  0  0  0  0  0  0  0  0
  133.3704  136.7044  163.9049 H   0  0  0  0  0  0  0  0  0  0  0  0
  134.7276  134.8206  162.8096 H   0  0  0  0  0  0  0  0  0  0  0  0
  132.5774  133.2462  162.2603 H   0  0  0  0  0  0  0  0  0  0  0  0
  133.6925  133.5117  160.8834 H   0  0  0  0  0  0  0  0  0  0  0  0
  128.8859  133.5444  157.7329 H   0  0  0  0  0  0  0  0  0  0  0  0
  131.4287  130.9280  158.5616 H   0  0  0  0  0  0  0  0  0  0  0  0
  129.6649  130.9491  158.2541 H   0  0  0  0  0  0  0  0  0  0  0  0
  131.1001  129.2599  156.5835 H   0  0  0  0  0  0  0  0  0  0  0  0
  131.4828  129.6349  153.9870 H   0  0  0  0  0  0  0  0  0  0  0  0
  130.7225  132.5815  153.2286 H   0  0  0  0  0  0  0  0  0  0  0  0
  131.4629  131.3270  152.0974 H   0  0  0  0  0  0  0  0  0  0  0  0
  129.4608  129.8127  152.4659 H   0  0  0  0  0  0  0  0  0  0  0  0
  128.7198  131.0664  153.5973 H   0  0  0  0  0  0  0  0  0  0  0  0
  129.3033  132.6509  155.7181 H   0  0  0  0  0  0  0  0  0  0  0  0
  130.9560  133.1528  155.2461 H   0  0  0  0  0  0  0  0  0  0  0  0
  127.6178  135.7209  161.5973 H   0  0  0  0  0  0  0  0  0  0  0  0
  127.1531  136.5689  160.1052 H   0  0  0  0  0  0  0  0  0  0  0  0
  125.1067  135.8558  161.0598 H   0  0  0  0  0  0  0  0  0  0  0  0
  1  2  2  0
  2 28  1  0
  2  3  1  0
  3  4  1  0
  3 29  1  0
  3 30  1  0
  4  5  1  0
  4 31  1  0
  4 32  1  0
  5  6  1  6
  5  7  1  0
  5 27  1  0
  7  8  1  0
  9  7  2  0
  9 10  1  0
  9 17  1  0
 10 11  1  0
 10 33  1  0
 11 16  1  0
 11 12  1  0
 11 34  1  1
 12 13  1  0
 12 35  1  0
 12 36  1  0
 13 15  1  0
 13 14  1  0
 13 37  1  1
 14 15  1  0
 14 38  1  0
 14 39  1  0
 15 16  1  0
 15 40  1  1
 16 41  1  0
 16 42  1  0
 17 18  1  0
 17 43  1  0
 18 19  1  6
 18 26  1  0
 18 20  1  0
 20 21  1  0
 20 44  1  0
 20 45  1  0
 21 22  2  0
 21 46  1  0
 22 23  1  0
 22 26  1  0
 23 25  1  0
 23 24  1  0
 23 47  1  0
 24 25  1  0
 24 48  1  0
 24 49  1  0
 25 50  1  0
 25 51  1  0
 26 52  1  0
 26 53  1  0
 27 28  1  0
 27 54  1  0
 27 55  1  0
 28 56  1  0
M  CHG  1   7   1
M  END
>  <DOCK_score>  (1) 
-43.137234

>  <SMILES>  (1) 
O=C1CC[C@H]([NH+]=C(NC2CC3CC3C2)N[C@H]2CC=C(C3CC3)C2)CN1

$$$$
