Nc1ccc(-c2c[nH]c(N[C@H](CO)CCO)[nH+]2)cc1
     RDKit          3D

 38 39  0  0  1  0  0  0  0  0999 V2000
  130.8364  129.2489  151.2222 N   0  0  0  0  0  0  0  0  0  0  0  0
  130.7738  129.8561  152.4787 C   0  0  0  0  0  0  0  0  0  0  0  0
  129.9779  130.9796  152.6674 C   0  0  0  0  0  0  0  0  0  0  0  0
  129.9145  131.5807  153.9069 C   0  0  0  0  0  0  0  0  0  0  0  0
  130.6497  131.0606  154.9709 C   0  0  0  0  0  0  0  0  0  0  0  0
  130.5833  131.7054  156.3053 C   0  0  0  0  0  0  0  0  0  0  0  0
  130.1593  131.1217  157.4533 C   0  0  0  0  0  0  0  0  0  0  0  0
  130.2618  132.0695  158.4440 N   0  0  0  0  0  0  0  0  0  0  0  0
  130.0319  131.9507  159.3788 H   0  0  0  0  0  0  0  0  0  0  0  0
  130.7460  133.2046  157.8708 C   0  0  0  0  0  0  0  0  0  0  0  0
  130.9958  134.3968  158.5286 N   0  0  0  0  0  0  0  0  0  0  0  0
  130.7366  134.5085  159.9662 C   0  0  2  0  0  0  0  0  0  0  0  0
  129.8111  133.9872  160.2102 H   0  0  0  0  0  0  0  0  0  0  0  0
  130.6065  135.9844  160.3478 C   0  0  0  0  0  0  0  0  0  0  0  0
  131.8200  136.6679  160.0279 O   0  0  0  0  0  0  0  0  0  0  0  0
  131.8954  133.8810  160.7436 C   0  0  0  0  0  0  0  0  0  0  0  0
  131.4336  133.5420  162.1622 C   0  0  0  0  0  0  0  0  0  0  0  0
  131.0080  134.7357  162.8226 O   0  0  0  0  0  0  0  0  0  0  0  0
  130.9315  132.9849  156.5919 N   0  0  0  0  0  0  0  0  0  0  0  0
  131.2664  133.6332  155.9527 H   0  0  0  0  0  0  0  0  0  0  0  0
  131.4519  129.9369  154.7779 C   0  0  0  0  0  0  0  0  0  0  0  0
  131.5074  129.3355  153.5381 C   0  0  0  0  0  0  0  0  0  0  0  0
  130.3245  129.6114  150.4823 H   0  0  0  0  0  0  0  0  0  0  0  0
  131.3917  128.4647  151.0896 H   0  0  0  0  0  0  0  0  0  0  0  0
  129.4087  131.3826  151.8427 H   0  0  0  0  0  0  0  0  0  0  0  0
  129.2957  132.4535  154.0533 H   0  0  0  0  0  0  0  0  0  0  0  0
  129.8078  130.1069  157.5675 H   0  0  0  0  0  0  0  0  0  0  0  0
  131.3425  135.1583  158.0378 H   0  0  0  0  0  0  0  0  0  0  0  0
  129.7808  136.4315  159.7941 H   0  0  0  0  0  0  0  0  0  0  0  0
  130.4137  136.0676  161.4174 H   0  0  0  0  0  0  0  0  0  0  0  0
  132.0545  136.6352  159.0904 H   0  0  0  0  0  0  0  0  0  0  0  0
  132.2201  132.9707  160.2399 H   0  0  0  0  0  0  0  0  0  0  0  0
  132.7255  134.5860  160.7904 H   0  0  0  0  0  0  0  0  0  0  0  0
  130.6037  132.8371  162.1155 H   0  0  0  0  0  0  0  0  0  0  0  0
  132.2592  133.0950  162.7160 H   0  0  0  0  0  0  0  0  0  0  0  0
  131.6973  135.4094  162.9002 H   0  0  0  0  0  0  0  0  0  0  0  0
  132.0257  129.5350  155.5997 H   0  0  0  0  0  0  0  0  0  0  0  0
  132.1251  128.4623  153.3892 H   0  0  0  0  0  0  0  0  0  0  0  0
  1  2  1  0
  1 23  1  0
  1 24  1  0
  2 22  2  0
  2  3  1  0
  3  4  2  0
  3 25  1  0
  4  5  1  0
  4 26  1  0
  5  6  1  0
  5 21  2  0
  6 19  1  0
  6  7  2  0
  7  8  1  0
  7 27  1  0
  8  9  1  0
  8 10  1  0
 10 11  1  0
 10 19  2  0
 11 12  1  0
 11 28  1  0
 12 13  1  6
 12 14  1  0
 12 16  1  0
 14 15  1  0
 14 29  1  0
 14 30  1  0
 15 31  1  0
 16 17  1  0
 16 32  1  0
 16 33  1  0
 17 18  1  0
 17 34  1  0
 17 35  1  0
 18 36  1  0
 19 20  1  0
 21 22  1  0
 21 37  1  0
 22 38  1  0
M  CHG  1  19   1
M  END
>  <DOCK_score>  (1) 
-56.241913

>  <SMILES>  (1) 
Nc1ccc(-c2c[nH]c(N[C@H](CO)CCO)[nH+]2)cc1

$$$$
