Cn1nccc1-c1ccccc1[C@@H](Nc1[nH]cc(-c2ccc(N)cc2)[nH+]1)c1cccc2ccccc12
     RDKit          3D

 63 68  0  0  1  0  0  0  0  0999 V2000
  127.6120  136.5216  164.4716 C   0  0  0  0  0  0  0  0  0  0  0  0
  128.6303  135.5384  164.0939 N   0  0  0  0  0  0  0  0  0  0  0  0
  129.6854  135.0909  164.8994 N   0  0  0  0  0  0  0  0  0  0  0  0
  130.3834  134.2158  164.2211 C   0  0  0  0  0  0  0  0  0  0  0  0
  129.8032  134.0634  162.9618 C   0  0  0  0  0  0  0  0  0  0  0  0
  128.7208  134.8946  162.8961 C   0  0  0  0  0  0  0  0  0  0  0  0
  127.8112  135.0601  161.7406 C   0  0  0  0  0  0  0  0  0  0  0  0
  126.4512  134.7784  161.8738 C   0  0  0  0  0  0  0  0  0  0  0  0
  125.6091  134.9301  160.7917 C   0  0  0  0  0  0  0  0  0  0  0  0
  126.1100  135.3647  159.5773 C   0  0  0  0  0  0  0  0  0  0  0  0
  127.4564  135.6502  159.4401 C   0  0  0  0  0  0  0  0  0  0  0  0
  128.3089  135.5030  160.5152 C   0  0  0  0  0  0  0  0  0  0  0  0
  129.7758  135.8139  160.3639 C   0  0  1  0  0  0  0  0  0  0  0  0
  130.3527  135.1823  161.0395 H   0  0  0  0  0  0  0  0  0  0  0  0
  130.1895  135.5568  158.9823 N   0  0  0  0  0  0  0  0  0  0  0  0
  130.0597  134.2871  158.4457 C   0  0  0  0  0  0  0  0  0  0  0  0
  129.5594  133.2002  159.0936 N   0  0  0  0  0  0  0  0  0  0  0  0
  129.2327  133.1755  160.0067 H   0  0  0  0  0  0  0  0  0  0  0  0
  129.6031  132.1434  158.2153 C   0  0  0  0  0  0  0  0  0  0  0  0
  130.1283  132.6156  157.0580 C   0  0  0  0  0  0  0  0  0  0  0  0
  130.3662  131.8296  155.8224 C   0  0  0  0  0  0  0  0  0  0  0  0
  129.7329  132.1888  154.6337 C   0  0  0  0  0  0  0  0  0  0  0  0
  129.9596  131.4599  153.4854 C   0  0  0  0  0  0  0  0  0  0  0  0
  130.8099  130.3609  153.5152 C   0  0  0  0  0  0  0  0  0  0  0  0
  131.0331  129.6208  152.3515 N   0  0  0  0  0  0  0  0  0  0  0  0
  131.4382  129.9977  154.7005 C   0  0  0  0  0  0  0  0  0  0  0  0
  131.2189  130.7271  155.8499 C   0  0  0  0  0  0  0  0  0  0  0  0
  130.3932  133.9353  157.2279 N   0  0  0  0  0  0  0  0  0  0  0  0
  130.7714  134.5239  156.5560 H   0  0  0  0  0  0  0  0  0  0  0  0
  130.0194  137.2626  160.6999 C   0  0  0  0  0  0  0  0  0  0  0  0
  128.9824  138.0628  161.0705 C   0  0  0  0  0  0  0  0  0  0  0  0
  129.1885  139.4044  161.3852 C   0  0  0  0  0  0  0  0  0  0  0  0
  130.4327  139.9539  161.3312 C   0  0  0  0  0  0  0  0  0  0  0  0
  131.5278  139.1592  160.9527 C   0  0  0  0  0  0  0  0  0  0  0  0
  132.8270  139.6912  160.8850 C   0  0  0  0  0  0  0  0  0  0  0  0
  133.8636  138.8911  160.5139 C   0  0  0  0  0  0  0  0  0  0  0  0
  133.6574  137.5492  160.1987 C   0  0  0  0  0  0  0  0  0  0  0  0
  132.4137  136.9995  160.2537 C   0  0  0  0  0  0  0  0  0  0  0  0
  131.3182  137.7944  160.6326 C   0  0  0  0  0  0  0  0  0  0  0  0
  126.8025  136.0207  165.0025 H   0  0  0  0  0  0  0  0  0  0  0  0
  128.0584  137.2768  165.1186 H   0  0  0  0  0  0  0  0  0  0  0  0
  127.2175  136.9990  163.5745 H   0  0  0  0  0  0  0  0  0  0  0  0
  131.2594  133.6948  164.5786 H   0  0  0  0  0  0  0  0  0  0  0  0
  130.1495  133.4069  162.1772 H   0  0  0  0  0  0  0  0  0  0  0  0
  126.0591  134.4390  162.8213 H   0  0  0  0  0  0  0  0  0  0  0  0
  124.5569  134.7089  160.8925 H   0  0  0  0  0  0  0  0  0  0  0  0
  125.4469  135.4812  158.7328 H   0  0  0  0  0  0  0  0  0  0  0  0
  127.8413  135.9895  158.4897 H   0  0  0  0  0  0  0  0  0  0  0  0
  130.5543  136.2760  158.4434 H   0  0  0  0  0  0  0  0  0  0  0  0
  129.2809  131.1312  158.4100 H   0  0  0  0  0  0  0  0  0  0  0  0
  129.0683  133.0399  154.6112 H   0  0  0  0  0  0  0  0  0  0  0  0
  129.4727  131.7406  152.5631 H   0  0  0  0  0  0  0  0  0  0  0  0
  131.6270  128.8534  152.3717 H   0  0  0  0  0  0  0  0  0  0  0  0
  130.5954  129.8733  151.5242 H   0  0  0  0  0  0  0  0  0  0  0  0
  132.0986  129.1433  154.7213 H   0  0  0  0  0  0  0  0  0  0  0  0
  131.7077  130.4447  156.7706 H   0  0  0  0  0  0  0  0  0  0  0  0
  127.9850  137.6517  161.1211 H   0  0  0  0  0  0  0  0  0  0  0  0
  128.3484  140.0175  161.6768 H   0  0  0  0  0  0  0  0  0  0  0  0
  130.5767  140.9964  161.5736 H   0  0  0  0  0  0  0  0  0  0  0  0
  133.0017  140.7294  161.1257 H   0  0  0  0  0  0  0  0  0  0  0  0
  134.8608  139.3025  160.4628 H   0  0  0  0  0  0  0  0  0  0  0  0
  134.4973  136.9363  159.9068 H   0  0  0  0  0  0  0  0  0  0  0  0
  132.2692  135.9579  160.0072 H   0  0  0  0  0  0  0  0  0  0  0  0
  1  2  1  0
  1 40  1  0
  1 41  1  0
  1 42  1  0
  2  6  1  0
  2  3  1  0
  3  4  2  0
  4  5  1  0
  4 43  1  0
  5  6  2  0
  5 44  1  0
  6  7  1  0
  7 12  1  0
  7  8  2  0
  8  9  1  0
  8 45  1  0
  9 10  2  0
  9 46  1  0
 10 11  1  0
 10 47  1  0
 11 12  2  0
 11 48  1  0
 12 13  1  0
 13 14  1  1
 13 15  1  0
 13 30  1  0
 15 49  1  0
 16 15  1  0
 16 28  2  0
 16 17  1  0
 17 18  1  0
 17 19  1  0
 19 20  2  0
 19 50  1  0
 20 21  1  0
 20 28  1  0
 21 27  1  0
 21 22  2  0
 22 23  1  0
 22 51  1  0
 23 24  2  0
 23 52  1  0
 24 25  1  0
 24 26  1  0
 25 53  1  0
 25 54  1  0
 26 27  2  0
 26 55  1  0
 27 56  1  0
 28 29  1  0
 30 39  1  0
 30 31  2  0
 31 32  1  0
 31 57  1  0
 32 33  2  0
 32 58  1  0
 33 34  1  0
 33 59  1  0
 34 39  2  0
 34 35  1  0
 35 36  2  0
 35 60  1  0
 36 37  1  0
 36 61  1  0
 37 38  2  0
 37 62  1  0
 38 39  1  0
 38 63  1  0
M  CHG  1  28   1
M  END
>  <DOCK_score>  (1) 
-61.647217

>  <SMILES>  (1) 
Cn1nccc1-c1ccccc1[C@@H](Nc1[nH]cc(-c2ccc(N)cc2)[nH+]1)c1cccc2ccccc12

$$$$
