C[C@@H](CNc1[nH]cc(-c2ccc(Br)cc2)[nH+]1)Cc1ccc(-c2ccccc2)cc1
     RDKit          3D

 54 57  0  0  1  0  0  0  0  0999 V2000
  130.1266  138.4111  160.8651 C   0  0  0  0  0  0  0  0  0  0  0  0
  131.2305  137.5528  161.4861 C   0  0  1  0  0  0  0  0  0  0  0  0
  131.2599  137.7217  162.5625 H   0  0  0  0  0  0  0  0  0  0  0  0
  130.9446  136.0756  161.2093 C   0  0  0  0  0  0  0  0  0  0  0  0
  130.9052  135.8486  159.7626 N   0  0  0  0  0  0  0  0  0  0  0  0
  130.6603  134.5790  159.2676 C   0  0  0  0  0  0  0  0  0  0  0  0
  130.0801  133.5582  159.9556 N   0  0  0  0  0  0  0  0  0  0  0  0
  129.7662  133.5889  160.8728 H   0  0  0  0  0  0  0  0  0  0  0  0
  130.0181  132.4772  159.1100 C   0  0  0  0  0  0  0  0  0  0  0  0
  130.5693  132.8656  157.9336 C   0  0  0  0  0  0  0  0  0  0  0  0
  130.7243  132.0239  156.7220 C   0  0  0  0  0  0  0  0  0  0  0  0
  130.1120  132.3983  155.5273 C   0  0  0  0  0  0  0  0  0  0  0  0
  130.2636  131.6145  154.4018 C   0  0  0  0  0  0  0  0  0  0  0  0
  131.0132  130.4526  154.4606 C   0  0  0  0  0  0  0  0  0  0  0  0
  131.2107  129.3795  152.9161 Br  0  0  0  0  0  0  0  0  0  0  0  0
  131.6191  130.0732  155.6461 C   0  0  0  0  0  0  0  0  0  0  0  0
  131.4781  130.8526  156.7760 C   0  0  0  0  0  0  0  0  0  0  0  0
  130.9541  134.1604  158.0607 N   0  0  0  0  0  0  0  0  0  0  0  0
  131.3792  134.6913  157.3692 H   0  0  0  0  0  0  0  0  0  0  0  0
  132.5793  137.9349  160.8731 C   0  0  0  0  0  0  0  0  0  0  0  0
  133.6914  137.4817  161.7835 C   0  0  0  0  0  0  0  0  0  0  0  0
  134.2384  136.2207  161.6280 C   0  0  0  0  0  0  0  0  0  0  0  0
  135.2575  135.8007  162.4587 C   0  0  0  0  0  0  0  0  0  0  0  0
  135.7351  136.6492  163.4554 C   0  0  0  0  0  0  0  0  0  0  0  0
  136.8300  136.2030  164.3519 C   0  0  0  0  0  0  0  0  0  0  0  0
  136.9068  136.6867  165.6563 C   0  0  0  0  0  0  0  0  0  0  0  0
  137.9277  136.2685  166.4857 C   0  0  0  0  0  0  0  0  0  0  0  0
  138.8735  135.3709  166.0241 C   0  0  0  0  0  0  0  0  0  0  0  0
  138.8051  134.8915  164.7284 C   0  0  0  0  0  0  0  0  0  0  0  0
  137.7855  135.2989  163.8922 C   0  0  0  0  0  0  0  0  0  0  0  0
  135.1766  137.9164  163.6109 C   0  0  0  0  0  0  0  0  0  0  0  0
  134.1617  138.3281  162.7713 C   0  0  0  0  0  0  0  0  0  0  0  0
  130.3303  139.4637  161.0623 H   0  0  0  0  0  0  0  0  0  0  0  0
  130.0974  138.2422  159.7886 H   0  0  0  0  0  0  0  0  0  0  0  0
  129.1658  138.1389  161.3018 H   0  0  0  0  0  0  0  0  0  0  0  0
  131.7311  135.4641  161.6518 H   0  0  0  0  0  0  0  0  0  0  0  0
  129.9838  135.8034  161.6462 H   0  0  0  0  0  0  0  0  0  0  0  0
  131.0507  136.5876  159.1515 H   0  0  0  0  0  0  0  0  0  0  0  0
  129.6118  131.5032  159.3396 H   0  0  0  0  0  0  0  0  0  0  0  0
  129.5231  133.3026  155.4815 H   0  0  0  0  0  0  0  0  0  0  0  0
  129.7930  131.9059  153.4745 H   0  0  0  0  0  0  0  0  0  0  0  0
  132.2030  129.1656  155.6869 H   0  0  0  0  0  0  0  0  0  0  0  0
  131.9512  130.5560  157.7004 H   0  0  0  0  0  0  0  0  0  0  0  0
  132.6288  139.0169  160.7498 H   0  0  0  0  0  0  0  0  0  0  0  0
  132.6862  137.4533  159.9012 H   0  0  0  0  0  0  0  0  0  0  0  0
  133.8672  135.5637  160.8555 H   0  0  0  0  0  0  0  0  0  0  0  0
  135.6836  134.8158  162.3369 H   0  0  0  0  0  0  0  0  0  0  0  0
  136.1691  137.3878  166.0176 H   0  0  0  0  0  0  0  0  0  0  0  0
  137.9880  136.6426  167.4970 H   0  0  0  0  0  0  0  0  0  0  0  0
  139.6710  135.0467  166.6764 H   0  0  0  0  0  0  0  0  0  0  0  0
  139.5485  134.1939  164.3718 H   0  0  0  0  0  0  0  0  0  0  0  0
  137.7308  134.9210  162.8819 H   0  0  0  0  0  0  0  0  0  0  0  0
  135.5403  138.5766  164.3844 H   0  0  0  0  0  0  0  0  0  0  0  0
  133.7310  139.3117  162.8882 H   0  0  0  0  0  0  0  0  0  0  0  0
  1  2  1  0
  1 33  1  0
  1 34  1  0
  1 35  1  0
  2  3  1  1
  2  4  1  0
  2 20  1  0
  4  5  1  0
  4 36  1  0
  4 37  1  0
  5 38  1  0
  6  5  1  0
  6 18  2  0
  6  7  1  0
  7  8  1  0
  7  9  1  0
  9 10  2  0
  9 39  1  0
 10 11  1  0
 10 18  1  0
 11 17  1  0
 11 12  2  0
 12 13  1  0
 12 40  1  0
 13 14  2  0
 13 41  1  0
 14 15  1  0
 14 16  1  0
 16 17  2  0
 16 42  1  0
 17 43  1  0
 18 19  1  0
 20 21  1  0
 20 44  1  0
 20 45  1  0
 21 32  1  0
 21 22  2  0
 22 23  1  0
 22 46  1  0
 23 24  2  0
 23 47  1  0
 24 25  1  0
 24 31  1  0
 25 30  1  0
 25 26  2  0
 26 27  1  0
 26 48  1  0
 27 28  2  0
 27 49  1  0
 28 29  1  0
 28 50  1  0
 29 30  2  0
 29 51  1  0
 30 52  1  0
 31 32  2  0
 31 53  1  0
 32 54  1  0
M  CHG  1  18   1
M  END
>  <DOCK_score>  (1) 
-57.540489

>  <SMILES>  (1) 
C[C@@H](CNc1[nH]cc(-c2ccc(Br)cc2)[nH+]1)Cc1ccc(-c2ccccc2)cc1

$$$$
