Cc1ccccc1C[C@@H](C)[NH2+]C1=CCN(c2cccc(C)c2CCl)CC1
     RDKit          3D

 56 58  0  0  1  0  0  0  0  0999 V2000
  135.0538  138.7829  158.1131 C   0  0  0  0  0  0  0  0  0  0  0  0
  135.4601  139.2544  159.4855 C   0  0  0  0  0  0  0  0  0  0  0  0
  136.7598  139.6640  159.7190 C   0  0  0  0  0  0  0  0  0  0  0  0
  137.1338  140.0910  160.9791 C   0  0  0  0  0  0  0  0  0  0  0  0
  136.2070  140.1137  162.0048 C   0  0  0  0  0  0  0  0  0  0  0  0
  134.9062  139.7096  161.7699 C   0  0  0  0  0  0  0  0  0  0  0  0
  134.5320  139.2824  160.5094 C   0  0  0  0  0  0  0  0  0  0  0  0
  133.1140  138.8414  160.2534 C   0  0  0  0  0  0  0  0  0  0  0  0
  132.9895  137.3410  160.5258 C   0  0  1  0  0  0  0  0  0  0  0  0
  133.8763  136.8290  160.1521 H   0  0  0  0  0  0  0  0  0  0  0  0
  132.8614  137.1051  162.0321 C   0  0  0  0  0  0  0  0  0  0  0  0
  131.7980  136.8170  159.8449 N   0  0  0  0  0  0  0  0  0  0  0  0
  131.8825  136.9726  158.8517 H   0  0  0  0  0  0  0  0  0  0  0  0
  130.9771  137.2909  160.1909 H   0  0  0  0  0  0  0  0  0  0  0  0
  131.6842  135.4461  160.0939 C   0  0  0  0  0  0  0  0  0  0  0  0
  130.6170  135.0103  160.6909 C   0  0  0  0  0  0  0  0  0  0  0  0
  130.3882  133.5626  161.0168 C   0  0  0  0  0  0  0  0  0  0  0  0
  131.2954  132.7148  160.2329 N   0  0  0  0  0  0  0  0  0  0  0  0
  130.9096  132.6760  158.8911 C   0  0  0  0  0  0  0  0  0  0  0  0
  130.2656  133.7665  158.3199 C   0  0  0  0  0  0  0  0  0  0  0  0
  129.8860  133.7249  156.9929 C   0  0  0  0  0  0  0  0  0  0  0  0
  130.1457  132.5991  156.2327 C   0  0  0  0  0  0  0  0  0  0  0  0
  130.7865  131.5121  156.7978 C   0  0  0  0  0  0  0  0  0  0  0  0
  131.0675  130.2876  155.9655 C   0  0  0  0  0  0  0  0  0  0  0  0
  131.1741  131.5492  158.1232 C   0  0  0  0  0  0  0  0  0  0  0  0
  131.8779  130.3663  158.7367 C   0  0  0  0  0  0  0  0  0  0  0  0
  130.6579  129.2354  159.4320 Cl  0  0  0  0  0  0  0  0  0  0  0  0
  132.6819  133.1911  160.3697 C   0  0  0  0  0  0  0  0  0  0  0  0
  132.8032  134.5416  159.6589 C   0  0  0  0  0  0  0  0  0  0  0  0
  134.7546  139.6391  157.5085 H   0  0  0  0  0  0  0  0  0  0  0  0
  135.8954  138.2789  157.6380 H   0  0  0  0  0  0  0  0  0  0  0  0
  134.2171  138.0896  158.2000 H   0  0  0  0  0  0  0  0  0  0  0  0
  137.4836  139.6467  158.9177 H   0  0  0  0  0  0  0  0  0  0  0  0
  138.1500  140.4075  161.1625 H   0  0  0  0  0  0  0  0  0  0  0  0
  136.4994  140.4474  162.9895 H   0  0  0  0  0  0  0  0  0  0  0  0
  134.1823  139.7273  162.5712 H   0  0  0  0  0  0  0  0  0  0  0  0
  132.8519  139.0451  159.2152 H   0  0  0  0  0  0  0  0  0  0  0  0
  132.4391  139.3875  160.9124 H   0  0  0  0  0  0  0  0  0  0  0  0
  131.9747  137.6169  162.4059 H   0  0  0  0  0  0  0  0  0  0  0  0
  132.7726  136.0361  162.2261 H   0  0  0  0  0  0  0  0  0  0  0  0
  133.7455  137.4939  162.5372 H   0  0  0  0  0  0  0  0  0  0  0  0
  129.8554  135.7247  160.9665 H   0  0  0  0  0  0  0  0  0  0  0  0
  129.3564  133.2989  160.7841 H   0  0  0  0  0  0  0  0  0  0  0  0
  130.5712  133.4011  162.0792 H   0  0  0  0  0  0  0  0  0  0  0  0
  130.0624  134.6459  158.9131 H   0  0  0  0  0  0  0  0  0  0  0  0
  129.3852  134.5723  156.5484 H   0  0  0  0  0  0  0  0  0  0  0  0
  129.8478  132.5692  155.1950 H   0  0  0  0  0  0  0  0  0  0  0  0
  132.0443  130.3864  155.4921 H   0  0  0  0  0  0  0  0  0  0  0  0
  131.0611  129.4045  156.6047 H   0  0  0  0  0  0  0  0  0  0  0  0
  130.3003  130.1862  155.1979 H   0  0  0  0  0  0  0  0  0  0  0  0
  132.4566  129.8505  157.9706 H   0  0  0  0  0  0  0  0  0  0  0  0
  132.5459  130.7106  159.5263 H   0  0  0  0  0  0  0  0  0  0  0  0
  132.9259  133.3096  161.4254 H   0  0  0  0  0  0  0  0  0  0  0  0
  133.3625  132.4736  159.9116 H   0  0  0  0  0  0  0  0  0  0  0  0
  133.7592  134.9998  159.9119 H   0  0  0  0  0  0  0  0  0  0  0  0
  132.7484  134.3901  158.5809 H   0  0  0  0  0  0  0  0  0  0  0  0
  1  2  1  0
  1 30  1  0
  1 31  1  0
  1 32  1  0
  2  7  2  0
  2  3  1  0
  3  4  2  0
  3 33  1  0
  4  5  1  0
  4 34  1  0
  5  6  2  0
  5 35  1  0
  6  7  1  0
  6 36  1  0
  7  8  1  0
  8  9  1  0
  8 37  1  0
  8 38  1  0
  9 10  1  6
  9 11  1  0
  9 12  1  0
 11 39  1  0
 11 40  1  0
 11 41  1  0
 12 13  1  0
 12 14  1  0
 12 15  1  0
 15 29  1  0
 15 16  2  0
 16 17  1  0
 16 42  1  0
 17 18  1  0
 17 43  1  0
 17 44  1  0
 18 19  1  0
 18 28  1  0
 19 25  1  0
 19 20  2  0
 20 21  1  0
 20 45  1  0
 21 22  2  0
 21 46  1  0
 22 23  1  0
 22 47  1  0
 23 24  1  0
 23 25  2  0
 24 48  1  0
 24 49  1  0
 24 50  1  0
 25 26  1  0
 26 27  1  0
 26 51  1  0
 26 52  1  0
 28 29  1  0
 28 53  1  0
 28 54  1  0
 29 55  1  0
 29 56  1  0
M  CHG  1  12   1
M  END
>  <DOCK_score>  (1) 
-57.644943

>  <SMILES>  (1) 
Cc1ccccc1C[C@@H](C)[NH2+]C1=CCN(c2cccc(C)c2CCl)CC1

$$$$
