c1ccc(-c2c[nH]c(N[C@@H](c3cccnc3)c3ccccn3)[nH+]2)cc1
     RDKit          3D

 43 46  0  0  1  0  0  0  0  0999 V2000
  131.0802  130.2970  153.0166 C   0  0  0  0  0  0  0  0  0  0  0  0
  130.3300  131.4587  153.0116 C   0  0  0  0  0  0  0  0  0  0  0  0
  130.0747  132.1238  154.1936 C   0  0  0  0  0  0  0  0  0  0  0  0
  130.5748  131.6225  155.3941 C   0  0  0  0  0  0  0  0  0  0  0  0
  130.3038  132.3329  156.6678 C   0  0  0  0  0  0  0  0  0  0  0  0
  129.6514  131.8241  157.7422 C   0  0  0  0  0  0  0  0  0  0  0  0
  129.6226  132.8123  158.6958 N   0  0  0  0  0  0  0  0  0  0  0  0
  129.2229  132.7484  159.5775 H   0  0  0  0  0  0  0  0  0  0  0  0
  130.2634  133.8954  158.1778 C   0  0  0  0  0  0  0  0  0  0  0  0
  130.4566  135.1038  158.8251 N   0  0  0  0  0  0  0  0  0  0  0  0
  129.9510  135.2945  160.1868 C   0  0  1  0  0  0  0  0  0  0  0  0
  130.4116  134.5634  160.8510 H   0  0  0  0  0  0  0  0  0  0  0  0
  130.2898  136.6852  160.6582 C   0  0  0  0  0  0  0  0  0  0  0  0
  130.5043  136.9374  162.0048 C   0  0  0  0  0  0  0  0  0  0  0  0
  130.8180  138.2309  162.3922 C   0  0  0  0  0  0  0  0  0  0  0  0
  130.8961  139.2215  161.4311 C   0  0  0  0  0  0  0  0  0  0  0  0
  130.6807  138.9462  160.1598 N   0  0  0  0  0  0  0  0  0  0  0  0
  130.3847  137.7265  159.7547 C   0  0  0  0  0  0  0  0  0  0  0  0
  128.4553  135.1109  160.1976 C   0  0  0  0  0  0  0  0  0  0  0  0
  127.6601  135.9341  159.4226 C   0  0  0  0  0  0  0  0  0  0  0  0
  126.2858  135.7534  159.4358 C   0  0  0  0  0  0  0  0  0  0  0  0
  125.7593  134.7537  160.2398 C   0  0  0  0  0  0  0  0  0  0  0  0
  126.6163  133.9727  160.9914 C   0  0  0  0  0  0  0  0  0  0  0  0
  127.9198  134.1700  160.9505 N   0  0  0  0  0  0  0  0  0  0  0  0
  130.6645  133.6068  156.9639 N   0  0  0  0  0  0  0  0  0  0  0  0
  131.1460  134.2069  156.3730 H   0  0  0  0  0  0  0  0  0  0  0  0
  131.3353  130.4545  155.3927 C   0  0  0  0  0  0  0  0  0  0  0  0
  131.5786  129.7943  154.2055 C   0  0  0  0  0  0  0  0  0  0  0  0
  131.2771  129.7791  152.0896 H   0  0  0  0  0  0  0  0  0  0  0  0
  129.9429  131.8462  152.0807 H   0  0  0  0  0  0  0  0  0  0  0  0
  129.4884  133.0307  154.1884 H   0  0  0  0  0  0  0  0  0  0  0  0
  129.2338  130.8320  157.8308 H   0  0  0  0  0  0  0  0  0  0  0  0
  130.9269  135.8242  158.3769 H   0  0  0  0  0  0  0  0  0  0  0  0
  130.4328  136.1439  162.7341 H   0  0  0  0  0  0  0  0  0  0  0  0
  130.9950  138.4626  163.4320 H   0  0  0  0  0  0  0  0  0  0  0  0
  131.1364  140.2325  161.7251 H   0  0  0  0  0  0  0  0  0  0  0  0
  130.2150  137.5393  158.7048 H   0  0  0  0  0  0  0  0  0  0  0  0
  128.1044  136.7061  158.8117 H   0  0  0  0  0  0  0  0  0  0  0  0
  125.6402  136.3788  158.8371 H   0  0  0  0  0  0  0  0  0  0  0  0
  124.6929  134.5878  160.2782 H   0  0  0  0  0  0  0  0  0  0  0  0
  126.2142  133.1921  161.6203 H   0  0  0  0  0  0  0  0  0  0  0  0
  131.7293  130.0643  156.3195 H   0  0  0  0  0  0  0  0  0  0  0  0
  132.1634  128.8863  154.2038 H   0  0  0  0  0  0  0  0  0  0  0  0
  1 28  2  0
  1  2  1  0
  1 29  1  0
  2  3  2  0
  2 30  1  0
  3  4  1  0
  3 31  1  0
  4  5  1  0
  4 27  2  0
  5 25  1  0
  5  6  2  0
  6  7  1  0
  6 32  1  0
  7  8  1  0
  7  9  1  0
  9 10  1  0
  9 25  2  0
 10 11  1  0
 10 33  1  0
 11 12  1  1
 11 13  1  0
 11 19  1  0
 13 18  1  0
 13 14  2  0
 14 15  1  0
 14 34  1  0
 15 16  2  0
 15 35  1  0
 16 17  1  0
 16 36  1  0
 17 18  2  0
 18 37  1  0
 19 24  1  0
 19 20  2  0
 20 21  1  0
 20 38  1  0
 21 22  2  0
 21 39  1  0
 22 23  1  0
 22 40  1  0
 23 24  2  0
 23 41  1  0
 25 26  1  0
 27 28  1  0
 27 42  1  0
 28 43  1  0
M  CHG  1  25   1
M  END
>  <DOCK_score>  (1) 
-56.247639

>  <SMILES>  (1) 
c1ccc(-c2c[nH]c(N[C@@H](c3cccnc3)c3ccccn3)[nH+]2)cc1

$$$$
