O=C1CC[C@H](NC(NC2CCc3ccccc3C2)=[NH+][C@@H](CO)Cc2ccccc2)CN1
     RDKit          3D

 64 67  0  0  1  0  0  0  0  0999 V2000
  125.0160  135.0721  163.6661 O   0  0  0  0  0  0  0  0  0  0  0  0
  126.1413  135.1925  163.2299 C   0  0  0  0  0  0  0  0  0  0  0  0
  127.2458  134.4173  163.8891 C   0  0  0  0  0  0  0  0  0  0  0  0
  128.6020  135.0148  163.5058 C   0  0  0  0  0  0  0  0  0  0  0  0
  128.6389  135.1959  161.9835 C   0  0  2  0  0  0  0  0  0  0  0  0
  128.3745  134.2570  161.4970 H   0  0  0  0  0  0  0  0  0  0  0  0
  129.9842  135.6023  161.5695 N   0  0  0  0  0  0  0  0  0  0  0  0
  130.4575  135.2486  160.3281 C   0  0  0  0  0  0  0  0  0  0  0  0
  131.7199  135.6298  159.9394 N   0  0  0  0  0  0  0  0  0  0  0  0
  132.5608  136.4130  160.8482 C   0  0  2  0  0  0  0  0  0  0  0  0
  133.5174  137.2940  160.0360 C   0  0  0  0  0  0  0  0  0  0  0  0
  134.2063  138.2656  160.9921 C   0  0  0  0  0  0  0  0  0  0  0  0
  134.8024  137.5253  162.1607 C   0  0  0  0  0  0  0  0  0  0  0  0
  135.7656  138.1799  162.9178 C   0  0  0  0  0  0  0  0  0  0  0  0
  136.3415  137.5602  164.0072 C   0  0  0  0  0  0  0  0  0  0  0  0
  135.9572  136.2767  164.3493 C   0  0  0  0  0  0  0  0  0  0  0  0
  135.0026  135.6242  163.5974 C   0  0  0  0  0  0  0  0  0  0  0  0
  134.4233  136.2457  162.4985 C   0  0  0  0  0  0  0  0  0  0  0  0
  133.3925  135.4727  161.7180 C   0  0  0  0  0  0  0  0  0  0  0  0
  129.7094  134.5517  159.5195 N   0  0  0  0  0  0  0  0  0  0  0  0
  128.7440  134.6391  159.5558 H   0  0  0  0  0  0  0  0  0  0  0  0
  130.3264  133.6369  158.5559 C   0  0  1  0  0  0  0  0  0  0  0  0
  130.9818  134.1985  157.8900 H   0  0  0  0  0  0  0  0  0  0  0  0
  131.1431  132.5821  159.3052 C   0  0  0  0  0  0  0  0  0  0  0  0
  130.2839  131.8459  160.1781 O   0  0  0  0  0  0  0  0  0  0  0  0
  129.2342  132.9481  157.7351 C   0  0  0  0  0  0  0  0  0  0  0  0
  129.8292  132.4087  156.4599 C   0  0  0  0  0  0  0  0  0  0  0  0
  129.8571  133.1951  155.3234 C   0  0  0  0  0  0  0  0  0  0  0  0
  130.4063  132.7016  154.1547 C   0  0  0  0  0  0  0  0  0  0  0  0
  130.9198  131.4187  154.1202 C   0  0  0  0  0  0  0  0  0  0  0  0
  130.8877  130.6305  155.2554 C   0  0  0  0  0  0  0  0  0  0  0  0
  130.3419  131.1254  156.4252 C   0  0  0  0  0  0  0  0  0  0  0  0
  127.6331  136.2802  161.5949 C   0  0  0  0  0  0  0  0  0  0  0  0
  126.3313  136.0057  162.1903 N   0  0  0  0  0  0  0  0  0  0  0  0
  127.2031  133.3780  163.5635 H   0  0  0  0  0  0  0  0  0  0  0  0
  127.1228  134.4632  164.9711 H   0  0  0  0  0  0  0  0  0  0  0  0
  129.4006  134.3404  163.8146 H   0  0  0  0  0  0  0  0  0  0  0  0
  128.7281  135.9815  163.9935 H   0  0  0  0  0  0  0  0  0  0  0  0
  130.5410  136.1207  162.1711 H   0  0  0  0  0  0  0  0  0  0  0  0
  132.0538  135.3803  159.0636 H   0  0  0  0  0  0  0  0  0  0  0  0
  131.9325  137.0394  161.4814 H   0  0  0  0  0  0  0  0  0  0  0  0
  134.2644  136.6698  159.5457 H   0  0  0  0  0  0  0  0  0  0  0  0
  132.9557  137.8522  159.2869 H   0  0  0  0  0  0  0  0  0  0  0  0
  133.4765  138.9876  161.3584 H   0  0  0  0  0  0  0  0  0  0  0  0
  134.9976  138.7932  160.4594 H   0  0  0  0  0  0  0  0  0  0  0  0
  136.0664  139.1823  162.6511 H   0  0  0  0  0  0  0  0  0  0  0  0
  137.0902  138.0753  164.5906 H   0  0  0  0  0  0  0  0  0  0  0  0
  136.4032  135.7869  165.2023 H   0  0  0  0  0  0  0  0  0  0  0  0
  134.7030  134.6216  163.8653 H   0  0  0  0  0  0  0  0  0  0  0  0
  132.7348  134.9491  162.4118 H   0  0  0  0  0  0  0  0  0  0  0  0
  133.8958  134.7451  161.0814 H   0  0  0  0  0  0  0  0  0  0  0  0
  131.9212  133.0728  159.8899 H   0  0  0  0  0  0  0  0  0  0  0  0
  131.6021  131.9014  158.5883 H   0  0  0  0  0  0  0  0  0  0  0  0
  129.8407  132.3893  160.8438 H   0  0  0  0  0  0  0  0  0  0  0  0
  128.8085  132.1277  158.3129 H   0  0  0  0  0  0  0  0  0  0  0  0
  128.4518  133.6679  157.4949 H   0  0  0  0  0  0  0  0  0  0  0  0
  129.4524  134.1960  155.3493 H   0  0  0  0  0  0  0  0  0  0  0  0
  130.4310  133.3172  153.2677 H   0  0  0  0  0  0  0  0  0  0  0  0
  131.3459  131.0319  153.2063 H   0  0  0  0  0  0  0  0  0  0  0  0
  131.2886  129.6281  155.2285 H   0  0  0  0  0  0  0  0  0  0  0  0
  130.3165  130.5096  157.3120 H   0  0  0  0  0  0  0  0  0  0  0  0
  127.9927  137.2477  161.9453 H   0  0  0  0  0  0  0  0  0  0  0  0
  127.5343  136.3076  160.5096 H   0  0  0  0  0  0  0  0  0  0  0  0
  125.5547  136.4418  161.8062 H   0  0  0  0  0  0  0  0  0  0  0  0
  1  2  2  0
  2 34  1  0
  2  3  1  0
  3  4  1  0
  3 35  1  0
  3 36  1  0
  4  5  1  0
  4 37  1  0
  4 38  1  0
  5  6  1  6
  5  7  1  0
  5 33  1  0
  7 39  1  0
  8  7  1  0
  8  9  1  0
  8 20  2  0
  9 10  1  0
  9 40  1  0
 10 19  1  0
 10 11  1  0
 10 41  1  1
 11 12  1  0
 11 42  1  0
 11 43  1  0
 12 13  1  0
 12 44  1  0
 12 45  1  0
 13 18  2  0
 13 14  1  0
 14 15  2  0
 14 46  1  0
 15 16  1  0
 15 47  1  0
 16 17  2  0
 16 48  1  0
 17 18  1  0
 17 49  1  0
 18 19  1  0
 19 50  1  0
 19 51  1  0
 20 21  1  0
 20 22  1  0
 22 23  1  6
 22 24  1  0
 22 26  1  0
 24 25  1  0
 24 52  1  0
 24 53  1  0
 25 54  1  0
 26 27  1  0
 26 55  1  0
 26 56  1  0
 27 32  1  0
 27 28  2  0
 28 29  1  0
 28 57  1  0
 29 30  2  0
 29 58  1  0
 30 31  1  0
 30 59  1  0
 31 32  2  0
 31 60  1  0
 32 61  1  0
 33 34  1  0
 33 62  1  0
 33 63  1  0
 34 64  1  0
M  CHG  1  20   1
M  END
>  <DOCK_score>  (1) 
-49.38232

>  <SMILES>  (1) 
O=C1CC[C@H](NC(NC2CCc3ccccc3C2)=[NH+][C@@H](CO)Cc2ccccc2)CN1

$$$$
