CCc1ccc(-c2c[nH]c(N[C@H](c3ccncn3)c3cccc(-c4ccccc4)c3C)[nH+]2)cc1
     RDKit          3D

 62 66  0  0  1  0  0  0  0  0999 V2000
  130.3451  128.1233  152.0645 C   0  0  0  0  0  0  0  0  0  0  0  0
  131.3021  129.3151  152.1405 C   0  0  0  0  0  0  0  0  0  0  0  0
  131.0072  130.1178  153.3814 C   0  0  0  0  0  0  0  0  0  0  0  0
  131.6543  129.8166  154.5669 C   0  0  0  0  0  0  0  0  0  0  0  0
  131.3881  130.5482  155.7063 C   0  0  0  0  0  0  0  0  0  0  0  0
  130.4657  131.5922  155.6613 C   0  0  0  0  0  0  0  0  0  0  0  0
  130.1754  132.3822  156.8827 C   0  0  0  0  0  0  0  0  0  0  0  0
  129.6752  131.8978  158.0463 C   0  0  0  0  0  0  0  0  0  0  0  0
  129.5629  132.9633  158.9061 N   0  0  0  0  0  0  0  0  0  0  0  0
  129.2340  132.9333  159.8182 H   0  0  0  0  0  0  0  0  0  0  0  0
  129.9983  134.0686  158.2421 C   0  0  0  0  0  0  0  0  0  0  0  0
  130.0474  135.3522  158.7584 N   0  0  0  0  0  0  0  0  0  0  0  0
  130.2583  135.5569  160.1936 C   0  0  2  0  0  0  0  0  0  0  0  0
  130.9969  134.8428  160.5578 H   0  0  0  0  0  0  0  0  0  0  0  0
  128.9576  135.3522  160.9267 C   0  0  0  0  0  0  0  0  0  0  0  0
  128.8982  135.4913  162.3045 C   0  0  0  0  0  0  0  0  0  0  0  0
  127.6793  135.2976  162.9346 C   0  0  0  0  0  0  0  0  0  0  0  0
  126.6214  134.9790  162.2061 N   0  0  0  0  0  0  0  0  0  0  0  0
  126.7164  134.8508  160.8979 C   0  0  0  0  0  0  0  0  0  0  0  0
  127.8578  135.0319  160.2641 N   0  0  0  0  0  0  0  0  0  0  0  0
  130.7548  136.9594  160.4334 C   0  0  0  0  0  0  0  0  0  0  0  0
  129.8512  137.9833  160.6550 C   0  0  0  0  0  0  0  0  0  0  0  0
  130.2997  139.2737  160.8708 C   0  0  0  0  0  0  0  0  0  0  0  0
  131.6533  139.5445  160.8767 C   0  0  0  0  0  0  0  0  0  0  0  0
  132.5678  138.5163  160.6594 C   0  0  0  0  0  0  0  0  0  0  0  0
  134.0240  138.8015  160.6649 C   0  0  0  0  0  0  0  0  0  0  0  0
  134.6736  139.1469  159.4815 C   0  0  0  0  0  0  0  0  0  0  0  0
  136.0272  139.4154  159.4933 C   0  0  0  0  0  0  0  0  0  0  0  0
  136.7412  139.3321  160.6750 C   0  0  0  0  0  0  0  0  0  0  0  0
  136.1025  138.9849  161.8518 C   0  0  0  0  0  0  0  0  0  0  0  0
  134.7482  138.7192  161.8525 C   0  0  0  0  0  0  0  0  0  0  0  0
  132.1101  137.2191  160.4371 C   0  0  0  0  0  0  0  0  0  0  0  0
  133.0933  136.1016  160.2008 C   0  0  0  0  0  0  0  0  0  0  0  0
  130.3581  133.7184  157.0315 N   0  0  0  0  0  0  0  0  0  0  0  0
  130.7025  134.3181  156.3515 H   0  0  0  0  0  0  0  0  0  0  0  0
  129.8129  131.8873  154.4657 C   0  0  0  0  0  0  0  0  0  0  0  0
  130.0910  131.1523  153.3312 C   0  0  0  0  0  0  0  0  0  0  0  0
  129.3175  128.4848  152.0277 H   0  0  0  0  0  0  0  0  0  0  0  0
  130.5586  127.5428  151.1670 H   0  0  0  0  0  0  0  0  0  0  0  0
  130.4777  127.4938  152.9444 H   0  0  0  0  0  0  0  0  0  0  0  0
  131.1698  129.9440  151.2609 H   0  0  0  0  0  0  0  0  0  0  0  0
  132.3300  128.9532  152.1776 H   0  0  0  0  0  0  0  0  0  0  0  0
  132.3688  129.0074  154.6006 H   0  0  0  0  0  0  0  0  0  0  0  0
  131.8937  130.3125  156.6310 H   0  0  0  0  0  0  0  0  0  0  0  0
  129.4143  130.8711  158.2565 H   0  0  0  0  0  0  0  0  0  0  0  0
  129.9421  136.1160  158.1698 H   0  0  0  0  0  0  0  0  0  0  0  0
  129.7800  135.7481  162.8729 H   0  0  0  0  0  0  0  0  0  0  0  0
  127.5946  135.4012  164.0063 H   0  0  0  0  0  0  0  0  0  0  0  0
  125.8355  134.5901  160.3300 H   0  0  0  0  0  0  0  0  0  0  0  0
  128.7915  137.7748  160.6556 H   0  0  0  0  0  0  0  0  0  0  0  0
  129.5899  140.0699  161.0395 H   0  0  0  0  0  0  0  0  0  0  0  0
  132.0026  140.5518  161.0490 H   0  0  0  0  0  0  0  0  0  0  0  0
  134.1178  139.2078  158.5574 H   0  0  0  0  0  0  0  0  0  0  0  0
  136.5309  139.6868  158.5773 H   0  0  0  0  0  0  0  0  0  0  0  0
  137.8011  139.5393  160.6790 H   0  0  0  0  0  0  0  0  0  0  0  0
  136.6648  138.9214  162.7718 H   0  0  0  0  0  0  0  0  0  0  0  0
  134.2505  138.4482  162.7719 H   0  0  0  0  0  0  0  0  0  0  0  0
  133.3634  135.6476  161.1542 H   0  0  0  0  0  0  0  0  0  0  0  0
  132.6401  135.3492  159.5554 H   0  0  0  0  0  0  0  0  0  0  0  0
  133.9879  136.5001  159.7218 H   0  0  0  0  0  0  0  0  0  0  0  0
  129.0936  132.6920  154.4263 H   0  0  0  0  0  0  0  0  0  0  0  0
  129.5887  131.3826  152.4032 H   0  0  0  0  0  0  0  0  0  0  0  0
  1  2  1  0
  1 38  1  0
  1 39  1  0
  1 40  1  0
  2  3  1  0
  2 41  1  0
  2 42  1  0
  3 37  2  0
  3  4  1  0
  4  5  2  0
  4 43  1  0
  5  6  1  0
  5 44  1  0
  6  7  1  0
  6 36  2  0
  7 34  1  0
  7  8  2  0
  8  9  1  0
  8 45  1  0
  9 10  1  0
  9 11  1  0
 11 12  1  0
 11 34  2  0
 12 13  1  0
 12 46  1  0
 13 14  1  1
 13 15  1  0
 13 21  1  0
 15 20  1  0
 15 16  2  0
 16 17  1  0
 16 47  1  0
 17 18  2  0
 17 48  1  0
 18 19  1  0
 19 20  2  0
 19 49  1  0
 21 32  1  0
 21 22  2  0
 22 23  1  0
 22 50  1  0
 23 24  2  0
 23 51  1  0
 24 25  1  0
 24 52  1  0
 25 26  1  0
 25 32  2  0
 26 31  1  0
 26 27  2  0
 27 28  1  0
 27 53  1  0
 28 29  2  0
 28 54  1  0
 29 30  1  0
 29 55  1  0
 30 31  2  0
 30 56  1  0
 31 57  1  0
 32 33  1  0
 33 58  1  0
 33 59  1  0
 33 60  1  0
 34 35  1  0
 36 37  1  0
 36 61  1  0
 37 62  1  0
M  CHG  1  34   1
M  END
>  <DOCK_score>  (1) 
-58.423702

>  <SMILES>  (1) 
CCc1ccc(-c2c[nH]c(N[C@H](c3ccncn3)c3cccc(-c4ccccc4)c3C)[nH+]2)cc1

$$$$
