Fc1ccc(-c2nn(-c3ccccc3)cc2-c2ccc(F)c(CN3CC[NH2+]CC3)c2)cc1
     RDKit          3D

 57 61  0  0  0  0  0  0  0  0999 V2000
  127.1127  136.1022  155.7078 F   0  0  0  0  0  0  0  0  0  0  0  0
  126.9887  136.0290  157.0511 C   0  0  0  0  0  0  0  0  0  0  0  0
  125.8319  135.5109  157.6108 C   0  0  0  0  0  0  0  0  0  0  0  0
  125.7008  135.4342  158.9820 C   0  0  0  0  0  0  0  0  0  0  0  0
  126.7345  135.8789  159.8048 C   0  0  0  0  0  0  0  0  0  0  0  0
  126.5984  135.7984  161.2791 C   0  0  0  0  0  0  0  0  0  0  0  0
  126.6336  136.8130  162.1154 N   0  0  0  0  0  0  0  0  0  0  0  0
  126.4724  136.3211  163.4163 N   0  0  0  0  0  0  0  0  0  0  0  0
  126.4574  137.0890  164.5878 C   0  0  0  0  0  0  0  0  0  0  0  0
  126.2881  136.4735  165.8211 C   0  0  0  0  0  0  0  0  0  0  0  0
  126.2728  137.2334  166.9742 C   0  0  0  0  0  0  0  0  0  0  0  0
  126.4263  138.6058  166.9016 C   0  0  0  0  0  0  0  0  0  0  0  0
  126.5954  139.2216  165.6751 C   0  0  0  0  0  0  0  0  0  0  0  0
  126.6111  138.4673  164.5183 C   0  0  0  0  0  0  0  0  0  0  0  0
  126.3275  134.9733  163.3473 C   0  0  0  0  0  0  0  0  0  0  0  0
  126.4007  134.6150  162.0347 C   0  0  0  0  0  0  0  0  0  0  0  0
  126.2926  133.2374  161.4945 C   0  0  0  0  0  0  0  0  0  0  0  0
  125.1380  132.4887  161.7153 C   0  0  0  0  0  0  0  0  0  0  0  0
  125.0396  131.2100  161.2065 C   0  0  0  0  0  0  0  0  0  0  0  0
  126.0910  130.6659  160.4866 C   0  0  0  0  0  0  0  0  0  0  0  0
  125.9927  129.4113  159.9951 F   0  0  0  0  0  0  0  0  0  0  0  0
  127.2426  131.4043  160.2697 C   0  0  0  0  0  0  0  0  0  0  0  0
  128.3828  130.8070  159.4857 C   0  0  0  0  0  0  0  0  0  0  0  0
  129.4785  131.7814  159.3957 N   0  0  0  0  0  0  0  0  0  0  0  0
  129.1742  132.8265  158.4084 C   0  0  0  0  0  0  0  0  0  0  0  0
  130.3104  133.8514  158.3882 C   0  0  0  0  0  0  0  0  0  0  0  0
  131.5701  133.1794  158.0429 N   0  0  0  0  0  0  0  0  0  0  0  0
  132.3169  133.8574  158.0175 H   0  0  0  0  0  0  0  0  0  0  0  0
  131.4809  132.7435  157.1372 H   0  0  0  0  0  0  0  0  0  0  0  0
  131.8731  132.1552  159.0512 C   0  0  0  0  0  0  0  0  0  0  0  0
  130.7498  131.1163  159.0770 C   0  0  0  0  0  0  0  0  0  0  0  0
  127.3474  132.6862  160.7699 C   0  0  0  0  0  0  0  0  0  0  0  0
  127.8941  136.4047  159.2374 C   0  0  0  0  0  0  0  0  0  0  0  0
  128.0189  136.4717  157.8651 C   0  0  0  0  0  0  0  0  0  0  0  0
  125.0315  135.1670  156.9725 H   0  0  0  0  0  0  0  0  0  0  0  0
  124.7988  135.0299  159.4173 H   0  0  0  0  0  0  0  0  0  0  0  0
  126.1685  135.4016  165.8784 H   0  0  0  0  0  0  0  0  0  0  0  0
  126.1453  136.7548  167.9339 H   0  0  0  0  0  0  0  0  0  0  0  0
  126.4135  139.1979  167.8047 H   0  0  0  0  0  0  0  0  0  0  0  0
  126.7150  140.2937  165.6217 H   0  0  0  0  0  0  0  0  0  0  0  0
  126.7427  138.9489  163.5607 H   0  0  0  0  0  0  0  0  0  0  0  0
  126.1806  134.3049  164.1828 H   0  0  0  0  0  0  0  0  0  0  0  0
  124.3197  132.9104  162.2802 H   0  0  0  0  0  0  0  0  0  0  0  0
  124.1436  130.6306  161.3737 H   0  0  0  0  0  0  0  0  0  0  0  0
  128.7371  129.9070  159.9883 H   0  0  0  0  0  0  0  0  0  0  0  0
  128.0401  130.5522  158.4829 H   0  0  0  0  0  0  0  0  0  0  0  0
  129.0733  132.3760  157.4211 H   0  0  0  0  0  0  0  0  0  0  0  0
  128.2420  133.3224  158.6792 H   0  0  0  0  0  0  0  0  0  0  0  0
  130.4021  134.3116  159.3721 H   0  0  0  0  0  0  0  0  0  0  0  0
  130.0935  134.6199  157.6463 H   0  0  0  0  0  0  0  0  0  0  0  0
  131.9567  132.6241  160.0316 H   0  0  0  0  0  0  0  0  0  0  0  0
  132.8145  131.6663  158.8010 H   0  0  0  0  0  0  0  0  0  0  0  0
  130.9671  130.3643  159.8354 H   0  0  0  0  0  0  0  0  0  0  0  0
  130.6748  130.6371  158.1008 H   0  0  0  0  0  0  0  0  0  0  0  0
  128.2456  133.2613  160.6003 H   0  0  0  0  0  0  0  0  0  0  0  0
  128.6957  136.7545  159.8711 H   0  0  0  0  0  0  0  0  0  0  0  0
  128.9189  136.8745  157.4245 H   0  0  0  0  0  0  0  0  0  0  0  0
  1  2  1  0
  2 34  2  0
  2  3  1  0
  3  4  2  0
  3 35  1  0
  4  5  1  0
  4 36  1  0
  5  6  1  0
  5 33  2  0
  6 16  1  0
  6  7  2  0
  7  8  1  0
  8  9  1  0
  8 15  1  0
  9 14  1  0
  9 10  2  0
 10 11  1  0
 10 37  1  0
 11 12  2  0
 11 38  1  0
 12 13  1  0
 12 39  1  0
 13 14  2  0
 13 40  1  0
 14 41  1  0
 15 16  2  0
 15 42  1  0
 16 17  1  0
 17 32  1  0
 17 18  2  0
 18 19  1  0
 18 43  1  0
 19 20  2  0
 19 44  1  0
 20 21  1  0
 20 22  1  0
 22 23  1  0
 22 32  2  0
 23 24  1  0
 23 45  1  0
 23 46  1  0
 24 31  1  0
 24 25  1  0
 25 26  1  0
 25 47  1  0
 25 48  1  0
 26 27  1  0
 26 49  1  0
 26 50  1  0
 27 28  1  0
 27 29  1  0
 27 30  1  0
 30 31  1  0
 30 51  1  0
 30 52  1  0
 31 53  1  0
 31 54  1  0
 32 55  1  0
 33 34  1  0
 33 56  1  0
 34 57  1  0
M  CHG  1  27   1
M  END
>  <DOCK_score>  (1) 
-44.025505

>  <SMILES>  (1) 
Fc1ccc(-c2nn(-c3ccccc3)cc2-c2ccc(F)c(CN3CC[NH2+]CC3)c2)cc1

$$$$
