Cc1ccccc1-c1ccccc1C[NH2+][C@@H]1C[C@@H]1NC1c2cc(O)ccc2-c2ccc(O)cc21
     RDKit          3D

 63 68  0  0  1  0  0  0  0  0999 V2000
  132.2948  140.9490  165.4581 C   0  0  0  0  0  0  0  0  0  0  0  0
  133.2789  140.2560  164.5511 C   0  0  0  0  0  0  0  0  0  0  0  0
  134.5298  139.9117  165.0224 C   0  0  0  0  0  0  0  0  0  0  0  0
  135.4360  139.2812  164.1894 C   0  0  0  0  0  0  0  0  0  0  0  0
  135.0923  138.9860  162.8821 C   0  0  0  0  0  0  0  0  0  0  0  0
  133.8424  139.3206  162.4023 C   0  0  0  0  0  0  0  0  0  0  0  0
  132.9256  139.9563  163.2372 C   0  0  0  0  0  0  0  0  0  0  0  0
  131.5799  140.3183  162.7270 C   0  0  0  0  0  0  0  0  0  0  0  0
  131.3681  141.5614  162.1338 C   0  0  0  0  0  0  0  0  0  0  0  0
  130.1162  141.8904  161.6554 C   0  0  0  0  0  0  0  0  0  0  0  0
  129.0695  140.9938  161.7751 C   0  0  0  0  0  0  0  0  0  0  0  0
  129.2728  139.7610  162.3680 C   0  0  0  0  0  0  0  0  0  0  0  0
  130.5225  139.4190  162.8444 C   0  0  0  0  0  0  0  0  0  0  0  0
  130.7426  138.0751  163.4899 C   0  0  0  0  0  0  0  0  0  0  0  0
  130.1000  137.0317  162.6794 N   0  0  0  0  0  0  0  0  0  0  0  0
  130.2473  136.1319  163.1115 H   0  0  0  0  0  0  0  0  0  0  0  0
  129.1101  137.2167  162.6166 H   0  0  0  0  0  0  0  0  0  0  0  0
  130.6843  137.0294  161.3317 C   0  0  2  0  0  0  0  0  0  0  0  0
  131.7629  137.1795  161.2865 H   0  0  0  0  0  0  0  0  0  0  0  0
  129.8413  137.6118  160.1953 C   0  0  0  0  0  0  0  0  0  0  0  0
  130.0563  136.1000  160.2912 C   0  0  2  0  0  0  0  0  0  0  0  0
  130.7218  135.6386  159.5615 H   0  0  0  0  0  0  0  0  0  0  0  0
  128.9152  135.2783  160.7163 N   0  0  0  0  0  0  0  0  0  0  0  0
  128.1369  134.8187  159.5583 C   0  0  0  0  0  0  0  0  0  0  0  0
  126.7774  134.3380  160.0036 C   0  0  0  0  0  0  0  0  0  0  0  0
  125.7350  134.9751  160.6411 C   0  0  0  0  0  0  0  0  0  0  0  0
  124.5721  134.2769  160.9377 C   0  0  0  0  0  0  0  0  0  0  0  0
  123.5438  134.9051  161.5659 O   0  0  0  0  0  0  0  0  0  0  0  0
  124.4601  132.9369  160.5919 C   0  0  0  0  0  0  0  0  0  0  0  0
  125.5005  132.2961  159.9548 C   0  0  0  0  0  0  0  0  0  0  0  0
  126.6724  132.9941  159.6542 C   0  0  0  0  0  0  0  0  0  0  0  0
  127.9238  132.5580  158.9864 C   0  0  0  0  0  0  0  0  0  0  0  0
  128.3007  131.3203  158.4600 C   0  0  0  0  0  0  0  0  0  0  0  0
  129.5406  131.1667  157.8785 C   0  0  0  0  0  0  0  0  0  0  0  0
  130.4197  132.2396  157.8143 C   0  0  0  0  0  0  0  0  0  0  0  0
  131.6414  132.0838  157.2402 O   0  0  0  0  0  0  0  0  0  0  0  0
  130.0498  133.4717  158.3366 C   0  0  0  0  0  0  0  0  0  0  0  0
  128.8107  133.6295  158.9184 C   0  0  0  0  0  0  0  0  0  0  0  0
  131.7634  140.2061  166.0529 H   0  0  0  0  0  0  0  0  0  0  0  0
  132.8288  141.6304  166.1205 H   0  0  0  0  0  0  0  0  0  0  0  0
  131.5806  141.5117  164.8570 H   0  0  0  0  0  0  0  0  0  0  0  0
  134.8031  140.1395  166.0421 H   0  0  0  0  0  0  0  0  0  0  0  0
  136.4153  139.0180  164.5607 H   0  0  0  0  0  0  0  0  0  0  0  0
  135.8037  138.4933  162.2360 H   0  0  0  0  0  0  0  0  0  0  0  0
  133.5754  139.0902  161.3815 H   0  0  0  0  0  0  0  0  0  0  0  0
  132.1834  142.2643  162.0445 H   0  0  0  0  0  0  0  0  0  0  0  0
  129.9522  142.8516  161.1909 H   0  0  0  0  0  0  0  0  0  0  0  0
  128.0902  141.2573  161.4038 H   0  0  0  0  0  0  0  0  0  0  0  0
  128.4524  139.0645  162.4582 H   0  0  0  0  0  0  0  0  0  0  0  0
  131.8119  137.8754  163.5577 H   0  0  0  0  0  0  0  0  0  0  0  0
  130.3090  138.0770  164.4899 H   0  0  0  0  0  0  0  0  0  0  0  0
  128.8533  137.9967  160.4478 H   0  0  0  0  0  0  0  0  0  0  0  0
  130.3655  138.1453  159.4024 H   0  0  0  0  0  0  0  0  0  0  0  0
  129.2208  134.4986  161.2791 H   0  0  0  0  0  0  0  0  0  0  0  0
  128.0318  135.6256  158.8332 H   0  0  0  0  0  0  0  0  0  0  0  0
  125.8224  136.0175  160.9095 H   0  0  0  0  0  0  0  0  0  0  0  0
  123.7145  135.8357  161.7655 H   0  0  0  0  0  0  0  0  0  0  0  0
  123.5550  132.3951  160.8233 H   0  0  0  0  0  0  0  0  0  0  0  0
  125.4098  131.2534  159.6881 H   0  0  0  0  0  0  0  0  0  0  0  0
  127.6199  130.4833  158.5084 H   0  0  0  0  0  0  0  0  0  0  0  0
  129.8297  130.2088  157.4720 H   0  0  0  0  0  0  0  0  0  0  0  0
  132.1822  132.8854  157.2424 H   0  0  0  0  0  0  0  0  0  0  0  0
  130.7331  134.3066  158.2865 H   0  0  0  0  0  0  0  0  0  0  0  0
  1  2  1  0
  1 39  1  0
  1 40  1  0
  1 41  1  0
  2  7  2  0
  2  3  1  0
  3  4  2  0
  3 42  1  0
  4  5  1  0
  4 43  1  0
  5  6  2  0
  5 44  1  0
  6  7  1  0
  6 45  1  0
  7  8  1  0
  8 13  1  0
  8  9  2  0
  9 10  1  0
  9 46  1  0
 10 11  2  0
 10 47  1  0
 11 12  1  0
 11 48  1  0
 12 13  2  0
 12 49  1  0
 13 14  1  0
 14 15  1  0
 14 50  1  0
 14 51  1  0
 15 16  1  0
 15 17  1  0
 15 18  1  0
 18 19  1  1
 18 21  1  0
 18 20  1  0
 20 21  1  0
 20 52  1  0
 20 53  1  0
 21 22  1  6
 21 23  1  0
 23 24  1  0
 23 54  1  0
 24 38  1  0
 24 25  1  0
 24 55  1  0
 25 31  1  0
 25 26  2  0
 26 27  1  0
 26 56  1  0
 27 28  1  0
 27 29  2  0
 28 57  1  0
 29 30  1  0
 29 58  1  0
 30 31  2  0
 30 59  1  0
 31 32  1  0
 32 38  2  0
 32 33  1  0
 33 34  2  0
 33 60  1  0
 34 35  1  0
 34 61  1  0
 35 36  1  0
 35 37  2  0
 36 62  1  0
 37 38  1  0
 37 63  1  0
M  CHG  1  15   1
M  END
>  <DOCK_score>  (1) 
-45.619232

>  <SMILES>  (1) 
Cc1ccccc1-c1ccccc1C[NH2+][C@@H]1C[C@@H]1NC1c2cc(O)ccc2-c2ccc(O)cc21

$$$$
