Cc1ccccc1-c1c[nH]c(NC(c2ccccc2)c2ccccc2)[nH+]1
     RDKit          3D

 48 51  0  0  1  0  0  0  0  0999 V2000
  131.7418  129.8887  156.8166 C   0  0  0  0  0  0  0  0  0  0  0  0
  131.1919  130.4218  155.5187 C   0  0  0  0  0  0  0  0  0  0  0  0
  131.4654  129.7709  154.3327 C   0  0  0  0  0  0  0  0  0  0  0  0
  130.9622  130.2596  153.1407 C   0  0  0  0  0  0  0  0  0  0  0  0
  130.1811  131.4014  153.1297 C   0  0  0  0  0  0  0  0  0  0  0  0
  129.8972  132.0575  154.3100 C   0  0  0  0  0  0  0  0  0  0  0  0
  130.4068  131.5732  155.5137 C   0  0  0  0  0  0  0  0  0  0  0  0
  130.1095  132.2771  156.7850 C   0  0  0  0  0  0  0  0  0  0  0  0
  129.4635  131.7523  157.8555 C   0  0  0  0  0  0  0  0  0  0  0  0
  129.4035  132.7400  158.8084 N   0  0  0  0  0  0  0  0  0  0  0  0
  129.0028  132.6655  159.6887 H   0  0  0  0  0  0  0  0  0  0  0  0
  130.0151  133.8405  158.2917 C   0  0  0  0  0  0  0  0  0  0  0  0
  130.1684  135.0556  158.9373 N   0  0  0  0  0  0  0  0  0  0  0  0
  129.1750  135.4927  159.9213 C   0  0  0  0  0  0  0  0  0  0  0  0
  129.5723  136.8376  160.4727 C   0  0  0  0  0  0  0  0  0  0  0  0
  128.6007  137.7277  160.8906 C   0  0  0  0  0  0  0  0  0  0  0  0
  128.9654  138.9596  161.4011 C   0  0  0  0  0  0  0  0  0  0  0  0
  130.3004  139.3055  161.4841 C   0  0  0  0  0  0  0  0  0  0  0  0
  131.2726  138.4174  161.0609 C   0  0  0  0  0  0  0  0  0  0  0  0
  130.9081  137.1835  160.5554 C   0  0  0  0  0  0  0  0  0  0  0  0
  127.8256  135.6001  159.2590 C   0  0  0  0  0  0  0  0  0  0  0  0
  126.6757  135.3748  159.9925 C   0  0  0  0  0  0  0  0  0  0  0  0
  125.4377  135.4780  159.3861 C   0  0  0  0  0  0  0  0  0  0  0  0
  125.3499  135.7962  158.0438 C   0  0  0  0  0  0  0  0  0  0  0  0
  126.5000  136.0163  157.3090 C   0  0  0  0  0  0  0  0  0  0  0  0
  127.7379  135.9183  157.9166 C   0  0  0  0  0  0  0  0  0  0  0  0
  130.4357  133.5600  157.0825 N   0  0  0  0  0  0  0  0  0  0  0  0
  130.9046  134.1721  156.4939 H   0  0  0  0  0  0  0  0  0  0  0  0
  131.0310  129.1857  157.2509 H   0  0  0  0  0  0  0  0  0  0  0  0
  132.6874  129.3802  156.6291 H   0  0  0  0  0  0  0  0  0  0  0  0
  131.9046  130.7149  157.5089 H   0  0  0  0  0  0  0  0  0  0  0  0
  132.0738  128.8786  154.3355 H   0  0  0  0  0  0  0  0  0  0  0  0
  131.1781  129.7462  152.2153 H   0  0  0  0  0  0  0  0  0  0  0  0
  129.7901  131.7781  152.1961 H   0  0  0  0  0  0  0  0  0  0  0  0
  129.2845  132.9468  154.3007 H   0  0  0  0  0  0  0  0  0  0  0  0
  129.0718  130.7496  157.9427 H   0  0  0  0  0  0  0  0  0  0  0  0
  130.9337  135.6174  158.7380 H   0  0  0  0  0  0  0  0  0  0  0  0
  129.1244  134.7675  160.7334 H   0  0  0  0  0  0  0  0  0  0  0  0
  127.5569  137.4593  160.8220 H   0  0  0  0  0  0  0  0  0  0  0  0
  128.2065  139.6536  161.7311 H   0  0  0  0  0  0  0  0  0  0  0  0
  130.5860  140.2696  161.8782 H   0  0  0  0  0  0  0  0  0  0  0  0
  132.3163  138.6878  161.1251 H   0  0  0  0  0  0  0  0  0  0  0  0
  131.6670  136.4899  160.2247 H   0  0  0  0  0  0  0  0  0  0  0  0
  126.7444  135.1218  161.0402 H   0  0  0  0  0  0  0  0  0  0  0  0
  124.5392  135.3056  159.9600 H   0  0  0  0  0  0  0  0  0  0  0  0
  124.3830  135.8725  157.5689 H   0  0  0  0  0  0  0  0  0  0  0  0
  126.4315  136.2646  156.2601 H   0  0  0  0  0  0  0  0  0  0  0  0
  128.6363  136.0900  157.3426 H   0  0  0  0  0  0  0  0  0  0  0  0
  1  2  1  0
  1 29  1  0
  1 30  1  0
  1 31  1  0
  2  7  2  0
  2  3  1  0
  3  4  2  0
  3 32  1  0
  4  5  1  0
  4 33  1  0
  5  6  2  0
  5 34  1  0
  6  7  1  0
  6 35  1  0
  7  8  1  0
  8 27  1  0
  8  9  2  0
  9 10  1  0
  9 36  1  0
 10 11  1  0
 10 12  1  0
 12 13  1  0
 12 27  2  0
 13 14  1  0
 13 37  1  0
 14 15  1  0
 14 21  1  0
 14 38  1  0
 15 20  1  0
 15 16  2  0
 16 17  1  0
 16 39  1  0
 17 18  2  0
 17 40  1  0
 18 19  1  0
 18 41  1  0
 19 20  2  0
 19 42  1  0
 20 43  1  0
 21 26  1  0
 21 22  2  0
 22 23  1  0
 22 44  1  0
 23 24  2  0
 23 45  1  0
 24 25  1  0
 24 46  1  0
 25 26  2  0
 25 47  1  0
 26 48  1  0
 27 28  1  0
M  CHG  1  27   1
M  END
>  <DOCK_score>  (1) 
-60.206078

>  <SMILES>  (1) 
Cc1ccccc1-c1c[nH]c(NC(c2ccccc2)c2ccccc2)[nH+]1

$$$$
