Cc1c[nH]c(Nc2ccc(Nc3ccc(CSc4ccccc4)cc3)cc2)[nH+]1
     RDKit          3D

 51 54  0  0  1  0  0  0  0  0999 V2000
  130.6082  131.5084  154.8642 C   0  0  0  0  0  0  0  0  0  0  0  0
  130.2480  132.2268  156.1391 C   0  0  0  0  0  0  0  0  0  0  0  0
  129.8188  131.6486  157.2739 C   0  0  0  0  0  0  0  0  0  0  0  0
  129.6054  132.6591  158.1835 N   0  0  0  0  0  0  0  0  0  0  0  0
  129.2920  132.5575  159.0958 H   0  0  0  0  0  0  0  0  0  0  0  0
  129.9165  133.8279  157.5600 C   0  0  0  0  0  0  0  0  0  0  0  0
  129.8410  135.0916  158.1229 N   0  0  0  0  0  0  0  0  0  0  0  0
  128.8924  135.3596  159.1174 C   0  0  0  0  0  0  0  0  0  0  0  0
  129.1595  136.3106  160.0937 C   0  0  0  0  0  0  0  0  0  0  0  0
  128.2239  136.5752  161.0740 C   0  0  0  0  0  0  0  0  0  0  0  0
  127.0157  135.8904  161.0836 C   0  0  0  0  0  0  0  0  0  0  0  0
  126.0674  136.1582  162.0778 N   0  0  0  0  0  0  0  0  0  0  0  0
  126.3904  135.9613  163.4225 C   0  0  0  0  0  0  0  0  0  0  0  0
  125.7949  136.7444  164.4035 C   0  0  0  0  0  0  0  0  0  0  0  0
  126.1164  136.5468  165.7319 C   0  0  0  0  0  0  0  0  0  0  0  0
  127.0298  135.5708  166.0862 C   0  0  0  0  0  0  0  0  0  0  0  0
  127.3780  135.3580  167.5368 C   0  0  0  0  0  0  0  0  0  0  0  0
  128.7871  136.4105  167.9811 S   0  0  0  0  0  0  0  0  0  0  0  0
  129.0443  136.0313  169.6824 C   0  0  0  0  0  0  0  0  0  0  0  0
  130.2582  135.5004  170.1019 C   0  0  0  0  0  0  0  0  0  0  0  0
  130.4541  135.1987  171.4351 C   0  0  0  0  0  0  0  0  0  0  0  0
  129.4440  135.4246  172.3526 C   0  0  0  0  0  0  0  0  0  0  0  0
  128.2348  135.9531  171.9388 C   0  0  0  0  0  0  0  0  0  0  0  0
  128.0317  136.2570  170.6072 C   0  0  0  0  0  0  0  0  0  0  0  0
  127.6286  134.7933  165.1118 C   0  0  0  0  0  0  0  0  0  0  0  0
  127.3077  134.9816  163.7819 C   0  0  0  0  0  0  0  0  0  0  0  0
  126.7506  134.9356  160.1103 C   0  0  0  0  0  0  0  0  0  0  0  0
  127.6841  134.6748  159.1270 C   0  0  0  0  0  0  0  0  0  0  0  0
  130.2949  133.5554  156.3335 N   0  0  0  0  0  0  0  0  0  0  0  0
  130.5680  134.2101  155.6719 H   0  0  0  0  0  0  0  0  0  0  0  0
  129.7233  131.4215  154.2337 H   0  0  0  0  0  0  0  0  0  0  0  0
  131.3774  132.0709  154.3351 H   0  0  0  0  0  0  0  0  0  0  0  0
  130.9843  130.5133  155.1018 H   0  0  0  0  0  0  0  0  0  0  0  0
  129.6698  130.5919  157.4404 H   0  0  0  0  0  0  0  0  0  0  0  0
  130.4453  135.7908  157.8282 H   0  0  0  0  0  0  0  0  0  0  0  0
  130.0992  136.8428  160.0863 H   0  0  0  0  0  0  0  0  0  0  0  0
  128.4316  137.3150  161.8329 H   0  0  0  0  0  0  0  0  0  0  0  0
  125.1858  136.4803  161.8330 H   0  0  0  0  0  0  0  0  0  0  0  0
  125.0818  137.5070  164.1274 H   0  0  0  0  0  0  0  0  0  0  0  0
  125.6541  137.1553  166.4950 H   0  0  0  0  0  0  0  0  0  0  0  0
  127.6405  134.3125  167.6980 H   0  0  0  0  0  0  0  0  0  0  0  0
  126.5207  135.6173  168.1581 H   0  0  0  0  0  0  0  0  0  0  0  0
  131.0473  135.3238  169.3860 H   0  0  0  0  0  0  0  0  0  0  0  0
  131.3970  134.7858  171.7618 H   0  0  0  0  0  0  0  0  0  0  0  0
  129.5999  135.1873  173.3946 H   0  0  0  0  0  0  0  0  0  0  0  0
  127.4485  136.1282  172.6580 H   0  0  0  0  0  0  0  0  0  0  0  0
  127.0869  136.6690  170.2847 H   0  0  0  0  0  0  0  0  0  0  0  0
  128.3452  134.0351  165.3915 H   0  0  0  0  0  0  0  0  0  0  0  0
  127.7723  134.3710  163.0218 H   0  0  0  0  0  0  0  0  0  0  0  0
  125.8128  134.4001  160.1203 H   0  0  0  0  0  0  0  0  0  0  0  0
  127.4764  133.9353  158.3679 H   0  0  0  0  0  0  0  0  0  0  0  0
  1  2  1  0
  1 31  1  0
  1 32  1  0
  1 33  1  0
  2 29  1  0
  2  3  2  0
  3  4  1  0
  3 34  1  0
  4  5  1  0
  4  6  1  0
  6  7  1  0
  6 29  2  0
  7  8  1  0
  7 35  1  0
  8 28  1  0
  8  9  2  0
  9 10  1  0
  9 36  1  0
 10 11  2  0
 10 37  1  0
 11 12  1  0
 11 27  1  0
 12 13  1  0
 12 38  1  0
 13 26  1  0
 13 14  2  0
 14 15  1  0
 14 39  1  0
 15 16  2  0
 15 40  1  0
 16 17  1  0
 16 25  1  0
 17 18  1  0
 17 41  1  0
 17 42  1  0
 18 19  1  0
 19 24  1  0
 19 20  2  0
 20 21  1  0
 20 43  1  0
 21 22  2  0
 21 44  1  0
 22 23  1  0
 22 45  1  0
 23 24  2  0
 23 46  1  0
 24 47  1  0
 25 26  2  0
 25 48  1  0
 26 49  1  0
 27 28  2  0
 27 50  1  0
 28 51  1  0
 29 30  1  0
M  CHG  1  29   1
M  END
>  <DOCK_score>  (1) 
-52.811085

>  <SMILES>  (1) 
Cc1c[nH]c(Nc2ccc(Nc3ccc(CSc4ccccc4)cc3)cc2)[nH+]1

$$$$
