CC1C[C@H]1NC(N[C@H]1[C@@H]2CC=CC[C@@H]21)=[NH+][C@@H]1C=C[C@@H](O)[C@H]1O
     RDKit          3D

 48 51  0  0  1  0  0  0  0  0999 V2000
  131.8676  138.7527  160.5527 C   0  0  0  0  0  0  0  0  0  0  0  0
  131.2189  137.4222  160.9395 C   0  0  2  0  0  0  0  0  0  0  0  0
  131.8022  136.1473  160.3268 C   0  0  0  0  0  0  0  0  0  0  0  0
  130.4449  136.6716  159.8540 C   0  0  1  0  0  0  0  0  0  0  0  0
  130.3977  137.1255  158.8641 H   0  0  0  0  0  0  0  0  0  0  0  0
  129.2517  135.9278  160.2656 N   0  0  0  0  0  0  0  0  0  0  0  0
  128.8753  134.7979  159.5789 C   0  0  0  0  0  0  0  0  0  0  0  0
  129.6184  134.3659  158.5059 N   0  0  0  0  0  0  0  0  0  0  0  0
  129.6790  132.9380  158.1840 C   0  0  1  0  0  0  0  0  0  0  0  0
  128.7227  132.4670  157.9561 H   0  0  0  0  0  0  0  0  0  0  0  0
  130.9103  132.4371  157.4265 C   0  0  2  0  0  0  0  0  0  0  0  0
  131.6785  133.1615  157.1559 H   0  0  0  0  0  0  0  0  0  0  0  0
  130.7009  131.2766  156.4407 C   0  0  0  0  0  0  0  0  0  0  0  0
  131.3403  130.0370  157.0166 C   0  0  0  0  0  0  0  0  0  0  0  0
  131.1723  129.7286  158.2785 C   0  0  0  0  0  0  0  0  0  0  0  0
  130.3362  130.6080  159.1756 C   0  0  0  0  0  0  0  0  0  0  0  0
  130.7248  132.0938  158.9150 C   0  0  2  0  0  0  0  0  0  0  0  0
  131.3686  132.5878  159.6427 H   0  0  0  0  0  0  0  0  0  0  0  0
  127.8137  134.1360  159.9451 N   0  0  0  0  0  0  0  0  0  0  0  0
  127.2957  133.6471  159.2865 H   0  0  0  0  0  0  0  0  0  0  0  0
  127.4030  134.1305  161.3514 C   0  0  2  0  0  0  0  0  0  0  0  0
  128.2716  134.2313  162.0020 H   0  0  0  0  0  0  0  0  0  0  0  0
  126.6477  132.8623  161.6741 C   0  0  0  0  0  0  0  0  0  0  0  0
  125.3619  133.0808  161.7247 C   0  0  0  0  0  0  0  0  0  0  0  0
  125.0453  134.5314  161.4441 C   0  0  1  0  0  0  0  0  0  0  0  0
  124.6789  134.6497  160.4243 H   0  0  0  0  0  0  0  0  0  0  0  0
  124.0816  135.0225  162.3780 O   0  0  0  0  0  0  0  0  0  0  0  0
  126.3924  135.2694  161.6217 C   0  0  1  0  0  0  0  0  0  0  0  0
  126.4993  136.0701  160.8900 H   0  0  0  0  0  0  0  0  0  0  0  0
  126.5302  135.7723  162.9522 O   0  0  0  0  0  0  0  0  0  0  0  0
  131.0984  139.4473  160.2151 H   0  0  0  0  0  0  0  0  0  0  0  0
  132.3810  139.1719  161.4182 H   0  0  0  0  0  0  0  0  0  0  0  0
  132.5855  138.5870  159.7495 H   0  0  0  0  0  0  0  0  0  0  0  0
  130.8404  137.3625  161.9600 H   0  0  0  0  0  0  0  0  0  0  0  0
  131.8076  135.2490  160.9441 H   0  0  0  0  0  0  0  0  0  0  0  0
  132.6481  136.2562  159.6479 H   0  0  0  0  0  0  0  0  0  0  0  0
  128.7274  136.2326  161.0226 H   0  0  0  0  0  0  0  0  0  0  0  0
  130.1026  135.0066  157.9619 H   0  0  0  0  0  0  0  0  0  0  0  0
  129.6340  131.1056  156.2979 H   0  0  0  0  0  0  0  0  0  0  0  0
  131.1669  131.5190  155.4856 H   0  0  0  0  0  0  0  0  0  0  0  0
  131.9402  129.3995  156.3839 H   0  0  0  0  0  0  0  0  0  0  0  0
  131.6347  128.8388  158.6794 H   0  0  0  0  0  0  0  0  0  0  0  0
  129.2794  130.4555  158.9563 H   0  0  0  0  0  0  0  0  0  0  0  0
  130.5333  130.3596  160.2185 H   0  0  0  0  0  0  0  0  0  0  0  0
  127.1110  131.9011  161.8414 H   0  0  0  0  0  0  0  0  0  0  0  0
  124.6216  132.3242  161.9386 H   0  0  0  0  0  0  0  0  0  0  0  0
  123.8939  135.9670  162.2895 H   0  0  0  0  0  0  0  0  0  0  0  0
  127.3695  136.2235  163.1171 H   0  0  0  0  0  0  0  0  0  0  0  0
  1  2  1  0
  1 31  1  0
  1 32  1  0
  1 33  1  0
  2  4  1  0
  2  3  1  0
  2 34  1  1
  3  4  1  0
  3 35  1  0
  3 36  1  0
  4  5  1  6
  4  6  1  0
  6 37  1  0
  7  6  1  0
  7  8  1  0
  7 19  2  0
  8  9  1  0
  8 38  1  0
  9 10  1  6
  9 17  1  0
  9 11  1  0
 11 12  1  1
 11 17  1  0
 11 13  1  0
 13 14  1  0
 13 39  1  0
 13 40  1  0
 14 15  2  0
 14 41  1  0
 15 16  1  0
 15 42  1  0
 16 17  1  0
 16 43  1  0
 16 44  1  0
 17 18  1  1
 19 20  1  0
 19 21  1  0
 21 22  1  1
 21 28  1  0
 21 23  1  0
 23 24  2  0
 23 45  1  0
 24 25  1  0
 24 46  1  0
 25 26  1  6
 25 27  1  0
 25 28  1  0
 27 47  1  0
 28 29  1  6
 28 30  1  0
 30 48  1  0
M  CHG  1  19   1
M  END
>  <DOCK_score>  (1) 
-47.10849

>  <SMILES>  (1) 
CC1C[C@H]1NC(N[C@H]1[C@@H]2CC=CC[C@@H]21)=[NH+][C@@H]1C=C[C@@H](O)[C@H]1O

$$$$
