Fc1cc(Br)ccc1[C@H](Nc1[nH]cc(-c2ccc(Br)cc2)[nH+]1)C1CC1
     RDKit          3D

 42 45  0  0  1  0  0  0  0  0999 V2000
  133.2623  133.3996  160.7341 F   0  0  0  0  0  0  0  0  0  0  0  0
  133.0157  134.7212  160.8666 C   0  0  0  0  0  0  0  0  0  0  0  0
  133.9384  135.5383  161.4977 C   0  0  0  0  0  0  0  0  0  0  0  0
  133.6877  136.8919  161.6272 C   0  0  0  0  0  0  0  0  0  0  0  0
  134.9510  138.0099  162.4815 Br  0  0  0  0  0  0  0  0  0  0  0  0
  132.5102  137.4275  161.1363 C   0  0  0  0  0  0  0  0  0  0  0  0
  131.5891  136.6122  160.5063 C   0  0  0  0  0  0  0  0  0  0  0  0
  131.8405  135.2597  160.3708 C   0  0  0  0  0  0  0  0  0  0  0  0
  130.8358  134.3716  159.6833 C   0  0  2  0  0  0  0  0  0  0  0  0
  130.8928  133.3667  160.1019 H   0  0  0  0  0  0  0  0  0  0  0  0
  131.1298  134.3206  158.2491 N   0  0  0  0  0  0  0  0  0  0  0  0
  130.8175  133.1870  157.5184 C   0  0  0  0  0  0  0  0  0  0  0  0
  130.2437  132.0571  158.0146 N   0  0  0  0  0  0  0  0  0  0  0  0
  129.9820  131.9026  158.9357 H   0  0  0  0  0  0  0  0  0  0  0  0
  130.1007  131.1770  156.9695 C   0  0  0  0  0  0  0  0  0  0  0  0
  130.5985  131.7906  155.8674 C   0  0  0  0  0  0  0  0  0  0  0  0
  130.6595  131.2163  154.5011 C   0  0  0  0  0  0  0  0  0  0  0  0
  129.9945  131.8432  153.4487 C   0  0  0  0  0  0  0  0  0  0  0  0
  130.0587  131.3077  152.1786 C   0  0  0  0  0  0  0  0  0  0  0  0
  130.7728  130.1443  151.9506 C   0  0  0  0  0  0  0  0  0  0  0  0
  130.8506  129.4122  150.2088 Br  0  0  0  0  0  0  0  0  0  0  0  0
  131.4308  129.5147  152.9934 C   0  0  0  0  0  0  0  0  0  0  0  0
  131.3772  130.0449  154.2663 C   0  0  0  0  0  0  0  0  0  0  0  0
  131.0309  133.0227  156.2357 N   0  0  0  0  0  0  0  0  0  0  0  0
  131.4340  133.6774  155.6442 H   0  0  0  0  0  0  0  0  0  0  0  0
  129.4286  134.9334  159.8960 C   0  0  0  0  0  0  0  0  0  0  0  0
  128.4004  134.7020  158.7868 C   0  0  0  0  0  0  0  0  0  0  0  0
  128.9903  136.0969  159.0043 C   0  0  0  0  0  0  0  0  0  0  0  0
  134.8554  135.1191  161.8851 H   0  0  0  0  0  0  0  0  0  0  0  0
  132.3128  138.4840  161.2415 H   0  0  0  0  0  0  0  0  0  0  0  0
  130.6721  137.0319  160.1197 H   0  0  0  0  0  0  0  0  0  0  0  0
  131.5432  135.0811  157.8114 H   0  0  0  0  0  0  0  0  0  0  0  0
  129.6768  130.1847  157.0172 H   0  0  0  0  0  0  0  0  0  0  0  0
  129.4332  132.7487  153.6264 H   0  0  0  0  0  0  0  0  0  0  0  0
  129.5471  131.7949  151.3617 H   0  0  0  0  0  0  0  0  0  0  0  0
  131.9867  128.6070  152.8104 H   0  0  0  0  0  0  0  0  0  0  0  0
  131.8909  129.5530  155.0791 H   0  0  0  0  0  0  0  0  0  0  0  0
  129.0698  134.9252  160.9251 H   0  0  0  0  0  0  0  0  0  0  0  0
  128.7264  134.1495  157.9057 H   0  0  0  0  0  0  0  0  0  0  0  0
  127.3648  134.5414  159.0862 H   0  0  0  0  0  0  0  0  0  0  0  0
  128.3428  136.8540  159.4466 H   0  0  0  0  0  0  0  0  0  0  0  0
  129.7045  136.4620  158.2661 H   0  0  0  0  0  0  0  0  0  0  0  0
  1  2  1  0
  2  8  2  0
  2  3  1  0
  3  4  2  0
  3 29  1  0
  4  5  1  0
  4  6  1  0
  6  7  2  0
  6 30  1  0
  7  8  1  0
  7 31  1  0
  8  9  1  0
  9 10  1  1
  9 11  1  0
  9 26  1  0
 11 32  1  0
 12 11  1  0
 12 24  2  0
 12 13  1  0
 13 14  1  0
 13 15  1  0
 15 16  2  0
 15 33  1  0
 16 17  1  0
 16 24  1  0
 17 23  1  0
 17 18  2  0
 18 19  1  0
 18 34  1  0
 19 20  2  0
 19 35  1  0
 20 21  1  0
 20 22  1  0
 22 23  2  0
 22 36  1  0
 23 37  1  0
 24 25  1  0
 26 28  1  0
 26 27  1  0
 26 38  1  0
 27 28  1  0
 27 39  1  0
 27 40  1  0
 28 41  1  0
 28 42  1  0
M  CHG  1  24   1
M  END
>  <DOCK_score>  (1) 
-56.011086

>  <SMILES>  (1) 
Fc1cc(Br)ccc1[C@H](Nc1[nH]cc(-c2ccc(Br)cc2)[nH+]1)C1CC1

$$$$
