Cc1cc(C(=O)C[NH2+]Cc2ccc(NC3CC3)cc2)c(C)o1
     RDKit          3D

 45 47  0  0  0  0  0  0  0  0999 V2000
  127.4133  137.7029  164.2081 C   0  0  0  0  0  0  0  0  0  0  0  0
  127.3282  137.0412  162.8568 C   0  0  0  0  0  0  0  0  0  0  0  0
  128.3078  137.0158  161.9416 C   0  0  0  0  0  0  0  0  0  0  0  0
  127.7705  136.2650  160.7953 C   0  0  0  0  0  0  0  0  0  0  0  0
  128.4551  135.9595  159.5355 C   0  0  0  0  0  0  0  0  0  0  0  0
  127.8162  135.8413  158.5110 O   0  0  0  0  0  0  0  0  0  0  0  0
  129.9527  135.7922  159.5131 C   0  0  0  0  0  0  0  0  0  0  0  0
  130.3241  134.8488  158.4501 N   0  0  0  0  0  0  0  0  0  0  0  0
  131.3268  134.7368  158.4352 H   0  0  0  0  0  0  0  0  0  0  0  0
  130.0122  135.2057  157.5595 H   0  0  0  0  0  0  0  0  0  0  0  0
  129.6901  133.5486  158.7058 C   0  0  0  0  0  0  0  0  0  0  0  0
  130.0711  132.5807  157.6154 C   0  0  0  0  0  0  0  0  0  0  0  0
  130.4577  131.2932  157.9398 C   0  0  0  0  0  0  0  0  0  0  0  0
  130.8071  130.4036  156.9429 C   0  0  0  0  0  0  0  0  0  0  0  0
  130.7700  130.8034  155.6131 C   0  0  0  0  0  0  0  0  0  0  0  0
  131.1232  129.9063  154.6025 N   0  0  0  0  0  0  0  0  0  0  0  0
  131.7170  130.4015  153.3582 C   0  0  0  0  0  0  0  0  0  0  0  0
  130.8787  130.2924  152.0829 C   0  0  0  0  0  0  0  0  0  0  0  0
  132.0820  129.3691  152.2896 C   0  0  0  0  0  0  0  0  0  0  0  0
  130.3864  132.0991  155.2911 C   0  0  0  0  0  0  0  0  0  0  0  0
  130.0332  132.9820  156.2926 C   0  0  0  0  0  0  0  0  0  0  0  0
  126.4956  135.9173  161.1501 C   0  0  0  0  0  0  0  0  0  0  0  0
  125.5247  135.1378  160.3009 C   0  0  0  0  0  0  0  0  0  0  0  0
  126.2596  136.3842  162.3789 O   0  0  0  0  0  0  0  0  0  0  0  0
  127.0775  138.7368  164.1282 H   0  0  0  0  0  0  0  0  0  0  0  0
  126.7786  137.1685  164.9150 H   0  0  0  0  0  0  0  0  0  0  0  0
  128.4452  137.6821  164.5585 H   0  0  0  0  0  0  0  0  0  0  0  0
  129.2901  137.4564  162.0279 H   0  0  0  0  0  0  0  0  0  0  0  0
  130.2896  135.4065  160.4754 H   0  0  0  0  0  0  0  0  0  0  0  0
  130.4233  136.7569  159.3236 H   0  0  0  0  0  0  0  0  0  0  0  0
  128.6069  133.6695  158.7222 H   0  0  0  0  0  0  0  0  0  0  0  0
  130.0272  133.1630  159.6680 H   0  0  0  0  0  0  0  0  0  0  0  0
  130.4866  130.9831  158.9740 H   0  0  0  0  0  0  0  0  0  0  0  0
  131.1085  129.3981  157.1970 H   0  0  0  0  0  0  0  0  0  0  0  0
  130.9791  128.9551  154.7262 H   0  0  0  0  0  0  0  0  0  0  0  0
  132.3665  131.2710  153.4606 H   0  0  0  0  0  0  0  0  0  0  0  0
  129.8854  129.8520  152.1698 H   0  0  0  0  0  0  0  0  0  0  0  0
  130.9769  131.0897  151.3463 H   0  0  0  0  0  0  0  0  0  0  0  0
  132.9713  129.5593  151.6889 H   0  0  0  0  0  0  0  0  0  0  0  0
  131.8806  128.3212  152.5127 H   0  0  0  0  0  0  0  0  0  0  0  0
  130.3607  132.4144  154.2585 H   0  0  0  0  0  0  0  0  0  0  0  0
  129.7308  133.9882  156.0427 H   0  0  0  0  0  0  0  0  0  0  0  0
  125.6423  134.0726  160.4995 H   0  0  0  0  0  0  0  0  0  0  0  0
  124.5060  135.4421  160.5415 H   0  0  0  0  0  0  0  0  0  0  0  0
  125.7237  135.3353  159.2476 H   0  0  0  0  0  0  0  0  0  0  0  0
  1  2  1  0
  1 25  1  0
  1 26  1  0
  1 27  1  0
  2 24  1  0
  2  3  2  0
  3  4  1  0
  3 28  1  0
  4  5  1  0
  4 22  2  0
  5  6  2  0
  5  7  1  0
  7  8  1  0
  7 29  1  0
  7 30  1  0
  8  9  1  0
  8 10  1  0
  8 11  1  0
 11 12  1  0
 11 31  1  0
 11 32  1  0
 12 21  1  0
 12 13  2  0
 13 14  1  0
 13 33  1  0
 14 15  2  0
 14 34  1  0
 15 16  1  0
 15 20  1  0
 16 17  1  0
 16 35  1  0
 17 19  1  0
 17 18  1  0
 17 36  1  0
 18 19  1  0
 18 37  1  0
 18 38  1  0
 19 39  1  0
 19 40  1  0
 20 21  2  0
 20 41  1  0
 21 42  1  0
 22 23  1  0
 22 24  1  0
 23 43  1  0
 23 44  1  0
 23 45  1  0
M  CHG  1   8   1
M  END
>  <DOCK_score>  (1) 
-44.196518

>  <SMILES>  (1) 
Cc1cc(C(=O)C[NH2+]Cc2ccc(NC3CC3)cc2)c(C)o1

$$$$
