Nc1cc(N)cc(Sc2c[nH]c(Nc3ccc(O)cc3)[nH+]2)c1
     RDKit          3D

 38 40  0  0  1  0  0  0  0  0999 V2000
  123.9960  131.4262  162.3835 N   0  0  0  0  0  0  0  0  0  0  0  0
  124.7545  132.1093  161.4303 C   0  0  0  0  0  0  0  0  0  0  0  0
  124.5456  133.4653  161.2191 C   0  0  0  0  0  0  0  0  0  0  0  0
  125.2995  134.1451  160.2712 C   0  0  0  0  0  0  0  0  0  0  0  0
  125.0889  135.5094  160.0588 N   0  0  0  0  0  0  0  0  0  0  0  0
  126.2627  133.4688  159.5353 C   0  0  0  0  0  0  0  0  0  0  0  0
  126.4720  132.1118  159.7467 C   0  0  0  0  0  0  0  0  0  0  0  0
  127.6942  131.2527  158.8123 S   0  0  0  0  0  0  0  0  0  0  0  0
  128.8929  132.5018  158.4845 C   0  0  0  0  0  0  0  0  0  0  0  0
  129.6952  132.5642  157.4002 C   0  0  0  0  0  0  0  0  0  0  0  0
  130.4713  133.6986  157.5427 N   0  0  0  0  0  0  0  0  0  0  0  0
  131.1447  134.0186  156.9221 H   0  0  0  0  0  0  0  0  0  0  0  0
  130.1137  134.2803  158.7187 C   0  0  0  0  0  0  0  0  0  0  0  0
  130.6536  135.4436  159.2423 N   0  0  0  0  0  0  0  0  0  0  0  0
  130.1943  135.9385  160.4687 C   0  0  0  0  0  0  0  0  0  0  0  0
  131.0737  136.0793  161.5343 C   0  0  0  0  0  0  0  0  0  0  0  0
  130.6208  136.5722  162.7422 C   0  0  0  0  0  0  0  0  0  0  0  0
  129.2858  136.9174  162.8943 C   0  0  0  0  0  0  0  0  0  0  0  0
  128.8395  137.3972  164.0859 O   0  0  0  0  0  0  0  0  0  0  0  0
  128.4056  136.7715  161.8322 C   0  0  0  0  0  0  0  0  0  0  0  0
  128.8577  136.2835  160.6222 C   0  0  0  0  0  0  0  0  0  0  0  0
  129.1674  133.5582  159.2719 N   0  0  0  0  0  0  0  0  0  0  0  0
  128.7332  133.7556  160.1166 H   0  0  0  0  0  0  0  0  0  0  0  0
  125.7137  131.4311  160.6906 C   0  0  0  0  0  0  0  0  0  0  0  0
  123.3232  131.8993  162.8978 H   0  0  0  0  0  0  0  0  0  0  0  0
  124.1419  130.4786  162.5312 H   0  0  0  0  0  0  0  0  0  0  0  0
  123.7963  133.9915  161.7918 H   0  0  0  0  0  0  0  0  0  0  0  0
  125.6157  135.9842  159.3971 H   0  0  0  0  0  0  0  0  0  0  0  0
  124.4159  135.9821  160.5730 H   0  0  0  0  0  0  0  0  0  0  0  0
  126.8495  133.9974  158.7988 H   0  0  0  0  0  0  0  0  0  0  0  0
  129.7224  131.8643  156.5781 H   0  0  0  0  0  0  0  0  0  0  0  0
  131.3500  135.9154  158.7591 H   0  0  0  0  0  0  0  0  0  0  0  0
  132.1121  135.8070  161.4172 H   0  0  0  0  0  0  0  0  0  0  0  0
  131.3053  136.6853  163.5699 H   0  0  0  0  0  0  0  0  0  0  0  0
  129.5249  137.4627  164.7651 H   0  0  0  0  0  0  0  0  0  0  0  0
  127.3663  137.0398  161.9516 H   0  0  0  0  0  0  0  0  0  0  0  0
  128.1722  136.1696  159.7955 H   0  0  0  0  0  0  0  0  0  0  0  0
  125.8730  130.3751  160.8520 H   0  0  0  0  0  0  0  0  0  0  0  0
  1  2  1  0
  1 25  1  0
  1 26  1  0
  2 24  2  0
  2  3  1  0
  3  4  2  0
  3 27  1  0
  4  5  1  0
  4  6  1  0
  5 28  1  0
  5 29  1  0
  6  7  2  0
  6 30  1  0
  7  8  1  0
  7 24  1  0
  8  9  1  0
  9 22  1  0
  9 10  2  0
 10 11  1  0
 10 31  1  0
 11 12  1  0
 11 13  1  0
 13 14  1  0
 13 22  2  0
 14 15  1  0
 14 32  1  0
 15 21  1  0
 15 16  2  0
 16 17  1  0
 16 33  1  0
 17 18  2  0
 17 34  1  0
 18 19  1  0
 18 20  1  0
 19 35  1  0
 20 21  2  0
 20 36  1  0
 21 37  1  0
 22 23  1  0
 24 38  1  0
M  CHG  1  22   1
M  END
>  <DOCK_score>  (1) 
-43.347149

>  <SMILES>  (1) 
Nc1cc(N)cc(Sc2c[nH]c(Nc3ccc(O)cc3)[nH+]2)c1

$$$$
