CCc1ccc(-c2c[nH]c(N[C@@H](Cc3ncccc3-c3ccccc3)c3ccnn3C)[nH+]2)cc1
     RDKit          3D

 63 67  0  0  1  0  0  0  0  0999 V2000
  130.4564  128.3632  152.1171 C   0  0  0  0  0  0  0  0  0  0  0  0
  131.3363  129.6099  152.2260 C   0  0  0  0  0  0  0  0  0  0  0  0
  130.9921  130.3593  153.4875 C   0  0  0  0  0  0  0  0  0  0  0  0
  131.6578  130.0693  154.6642 C   0  0  0  0  0  0  0  0  0  0  0  0
  131.3508  130.7560  155.8213 C   0  0  0  0  0  0  0  0  0  0  0  0
  130.3597  131.7358  155.8048 C   0  0  0  0  0  0  0  0  0  0  0  0
  130.0214  132.4736  157.0464 C   0  0  0  0  0  0  0  0  0  0  0  0
  129.5708  131.9262  158.2022 C   0  0  0  0  0  0  0  0  0  0  0  0
  129.3855  132.9602  159.0874 N   0  0  0  0  0  0  0  0  0  0  0  0
  129.0683  132.8847  160.0009 H   0  0  0  0  0  0  0  0  0  0  0  0
  129.7287  134.1104  158.4458 C   0  0  0  0  0  0  0  0  0  0  0  0
  129.6842  135.3820  158.9913 N   0  0  0  0  0  0  0  0  0  0  0  0
  129.2380  135.5709  160.3738 C   0  0  1  0  0  0  0  0  0  0  0  0
  129.6406  134.7729  160.9978 H   0  0  0  0  0  0  0  0  0  0  0  0
  129.7359  136.9224  160.8903 C   0  0  0  0  0  0  0  0  0  0  0  0
  131.2417  136.9558  160.8394 C   0  0  0  0  0  0  0  0  0  0  0  0
  131.9030  135.9093  160.3889 N   0  0  0  0  0  0  0  0  0  0  0  0
  133.2203  135.8927  160.3259 C   0  0  0  0  0  0  0  0  0  0  0  0
  133.9674  136.9831  160.7333 C   0  0  0  0  0  0  0  0  0  0  0  0
  133.3182  138.1069  161.2144 C   0  0  0  0  0  0  0  0  0  0  0  0
  131.9214  138.0953  161.2638 C   0  0  0  0  0  0  0  0  0  0  0  0
  131.1749  139.2757  161.7653 C   0  0  0  0  0  0  0  0  0  0  0  0
  130.7805  140.2798  160.8835 C   0  0  0  0  0  0  0  0  0  0  0  0
  130.0825  141.3734  161.3546 C   0  0  0  0  0  0  0  0  0  0  0  0
  129.7830  141.4782  162.7009 C   0  0  0  0  0  0  0  0  0  0  0  0
  130.1766  140.4868  163.5816 C   0  0  0  0  0  0  0  0  0  0  0  0
  130.8708  139.3866  163.1205 C   0  0  0  0  0  0  0  0  0  0  0  0
  127.7323  135.5375  160.4247 C   0  0  0  0  0  0  0  0  0  0  0  0
  126.9021  135.3617  159.3706 C   0  0  0  0  0  0  0  0  0  0  0  0
  125.5878  135.3930  159.8482 C   0  0  0  0  0  0  0  0  0  0  0  0
  125.6272  135.5888  161.1412 N   0  0  0  0  0  0  0  0  0  0  0  0
  126.9702  135.6831  161.5288 N   0  0  0  0  0  0  0  0  0  0  0  0
  127.4605  135.9018  162.8919 C   0  0  0  0  0  0  0  0  0  0  0  0
  130.1137  133.8149  157.2283 N   0  0  0  0  0  0  0  0  0  0  0  0
  130.4143  134.4535  156.5629 H   0  0  0  0  0  0  0  0  0  0  0  0
  129.6880  132.0203  154.6172 C   0  0  0  0  0  0  0  0  0  0  0  0
  130.0073  131.3310  153.4649 C   0  0  0  0  0  0  0  0  0  0  0  0
  130.7053  127.8214  151.2046 H   0  0  0  0  0  0  0  0  0  0  0  0
  130.6295  127.7204  152.9801 H   0  0  0  0  0  0  0  0  0  0  0  0
  129.4079  128.6594  152.0891 H   0  0  0  0  0  0  0  0  0  0  0  0
  132.3845  129.3142  152.2535 H   0  0  0  0  0  0  0  0  0  0  0  0
  131.1628  130.2534  151.3626 H   0  0  0  0  0  0  0  0  0  0  0  0
  132.4223  129.3064  154.6770 H   0  0  0  0  0  0  0  0  0  0  0  0
  131.8748  130.5318  156.7387 H   0  0  0  0  0  0  0  0  0  0  0  0
  129.3915  130.8780  158.3908 H   0  0  0  0  0  0  0  0  0  0  0  0
  129.9486  136.1479  158.4580 H   0  0  0  0  0  0  0  0  0  0  0  0
  129.3334  137.7204  160.2663 H   0  0  0  0  0  0  0  0  0  0  0  0
  129.4038  137.0630  161.9188 H   0  0  0  0  0  0  0  0  0  0  0  0
  133.7234  135.0141  159.9499 H   0  0  0  0  0  0  0  0  0  0  0  0
  135.0455  136.9580  160.6763 H   0  0  0  0  0  0  0  0  0  0  0  0
  133.8766  138.9725  161.5389 H   0  0  0  0  0  0  0  0  0  0  0  0
  131.0175  140.2010  159.8328 H   0  0  0  0  0  0  0  0  0  0  0  0
  129.7728  142.1503  160.6714 H   0  0  0  0  0  0  0  0  0  0  0  0
  129.2400  142.3374  163.0660 H   0  0  0  0  0  0  0  0  0  0  0  0
  129.9407  140.5739  164.6318 H   0  0  0  0  0  0  0  0  0  0  0  0
  131.1774  138.6129  163.8089 H   0  0  0  0  0  0  0  0  0  0  0  0
  127.2016  135.2199  158.3428 H   0  0  0  0  0  0  0  0  0  0  0  0
  124.6946  135.2794  159.2519 H   0  0  0  0  0  0  0  0  0  0  0  0
  127.5546  136.9720  163.0768 H   0  0  0  0  0  0  0  0  0  0  0  0
  126.7575  135.4703  163.6045 H   0  0  0  0  0  0  0  0  0  0  0  0
  128.4342  135.4259  163.0084 H   0  0  0  0  0  0  0  0  0  0  0  0
  128.9189  132.7781  154.5986 H   0  0  0  0  0  0  0  0  0  0  0  0
  129.4872  131.5503  152.5441 H   0  0  0  0  0  0  0  0  0  0  0  0
  1  2  1  0
  1 38  1  0
  1 39  1  0
  1 40  1  0
  2  3  1  0
  2 41  1  0
  2 42  1  0
  3 37  2  0
  3  4  1  0
  4  5  2  0
  4 43  1  0
  5  6  1  0
  5 44  1  0
  6  7  1  0
  6 36  2  0
  7 34  1  0
  7  8  2  0
  8  9  1  0
  8 45  1  0
  9 10  1  0
  9 11  1  0
 11 12  1  0
 11 34  2  0
 12 13  1  0
 12 46  1  0
 13 14  1  1
 13 15  1  0
 13 28  1  0
 15 16  1  0
 15 47  1  0
 15 48  1  0
 16 21  1  0
 16 17  2  0
 17 18  1  0
 18 19  2  0
 18 49  1  0
 19 20  1  0
 19 50  1  0
 20 21  2  0
 20 51  1  0
 21 22  1  0
 22 27  1  0
 22 23  2  0
 23 24  1  0
 23 52  1  0
 24 25  2  0
 24 53  1  0
 25 26  1  0
 25 54  1  0
 26 27  2  0
 26 55  1  0
 27 56  1  0
 28 32  1  0
 28 29  2  0
 29 30  1  0
 29 57  1  0
 30 31  2  0
 30 58  1  0
 31 32  1  0
 32 33  1  0
 33 59  1  0
 33 60  1  0
 33 61  1  0
 34 35  1  0
 36 37  1  0
 36 62  1  0
 37 63  1  0
M  CHG  1  34   1
M  END
>  <DOCK_score>  (1) 
-60.828075

>  <SMILES>  (1) 
CCc1ccc(-c2c[nH]c(N[C@@H](Cc3ncccc3-c3ccccc3)c3ccnn3C)[nH+]2)cc1

$$$$
