c1ccc(-c2ccc(Sc3cnc(-c4n[nH]cc4CNc4[nH]c5ccccc5[nH+]4)cn3)cc2)cc1
     RDKit          3D

 57 62  0  0  0  0  0  0  0  0999 V2000
  127.5667  143.4054  169.0528 C   0  0  0  0  0  0  0  0  0  0  0  0
  126.8052  142.8146  168.0605 C   0  0  0  0  0  0  0  0  0  0  0  0
  127.4184  142.2486  166.9615 C   0  0  0  0  0  0  0  0  0  0  0  0
  128.8083  142.2626  166.8578 C   0  0  0  0  0  0  0  0  0  0  0  0
  129.4733  141.6508  165.6818 C   0  0  0  0  0  0  0  0  0  0  0  0
  128.8236  141.6234  164.4483 C   0  0  0  0  0  0  0  0  0  0  0  0
  129.4454  141.0591  163.3554 C   0  0  0  0  0  0  0  0  0  0  0  0
  130.7155  140.5075  163.4847 C   0  0  0  0  0  0  0  0  0  0  0  0
  131.5055  139.7806  162.0874 S   0  0  0  0  0  0  0  0  0  0  0  0
  130.3946  138.4917  161.6299 C   0  0  0  0  0  0  0  0  0  0  0  0
  130.6867  137.6748  160.5387 C   0  0  0  0  0  0  0  0  0  0  0  0
  129.8586  136.7074  160.1989 N   0  0  0  0  0  0  0  0  0  0  0  0
  128.7380  136.5169  160.8913 C   0  0  0  0  0  0  0  0  0  0  0  0
  127.8027  135.4325  160.5054 C   0  0  0  0  0  0  0  0  0  0  0  0
  126.4963  135.4418  160.6681 N   0  0  0  0  0  0  0  0  0  0  0  0
  125.9873  134.2344  160.1729 N   0  0  0  0  0  0  0  0  0  0  0  0
  125.0538  133.9711  160.1646 H   0  0  0  0  0  0  0  0  0  0  0  0
  127.0219  133.5007  159.7089 C   0  0  0  0  0  0  0  0  0  0  0  0
  128.1545  134.2128  159.8941 C   0  0  0  0  0  0  0  0  0  0  0  0
  129.5473  133.7787  159.5166 C   0  0  0  0  0  0  0  0  0  0  0  0
  129.8416  134.2164  158.1497 N   0  0  0  0  0  0  0  0  0  0  0  0
  130.1452  133.2890  157.1813 C   0  0  0  0  0  0  0  0  0  0  0  0
  130.4220  133.5758  155.9111 N   0  0  0  0  0  0  0  0  0  0  0  0
  130.4418  134.4639  155.5216 H   0  0  0  0  0  0  0  0  0  0  0  0
  130.6771  132.4043  155.2479 C   0  0  0  0  0  0  0  0  0  0  0  0
  131.0154  132.0959  153.9334 C   0  0  0  0  0  0  0  0  0  0  0  0
  131.2041  130.7814  153.5651 C   0  0  0  0  0  0  0  0  0  0  0  0
  131.0592  129.7625  154.4953 C   0  0  0  0  0  0  0  0  0  0  0  0
  130.7246  130.0505  155.8007 C   0  0  0  0  0  0  0  0  0  0  0  0
  130.5304  131.3727  156.1896 C   0  0  0  0  0  0  0  0  0  0  0  0
  130.1996  131.9733  157.3758 N   0  0  0  0  0  0  0  0  0  0  0  0
  130.0328  131.5168  158.2153 H   0  0  0  0  0  0  0  0  0  0  0  0
  128.4438  137.3369  161.9786 C   0  0  0  0  0  0  0  0  0  0  0  0
  129.2768  138.3024  162.3214 N   0  0  0  0  0  0  0  0  0  0  0  0
  131.3630  140.5291  164.7153 C   0  0  0  0  0  0  0  0  0  0  0  0
  130.7466  141.0971  165.8093 C   0  0  0  0  0  0  0  0  0  0  0  0
  129.5706  142.8542  167.8636 C   0  0  0  0  0  0  0  0  0  0  0  0
  128.9465  143.4224  168.9553 C   0  0  0  0  0  0  0  0  0  0  0  0
  127.0825  143.8512  169.9091 H   0  0  0  0  0  0  0  0  0  0  0  0
  125.7285  142.8001  168.1442 H   0  0  0  0  0  0  0  0  0  0  0  0
  126.8228  141.7912  166.1853 H   0  0  0  0  0  0  0  0  0  0  0  0
  127.8353  142.0474  164.3486 H   0  0  0  0  0  0  0  0  0  0  0  0
  128.9440  141.0411  162.3989 H   0  0  0  0  0  0  0  0  0  0  0  0
  131.5939  137.8319  159.9743 H   0  0  0  0  0  0  0  0  0  0  0  0
  126.9548  132.5187  159.2646 H   0  0  0  0  0  0  0  0  0  0  0  0
  130.2660  134.2254  160.2036 H   0  0  0  0  0  0  0  0  0  0  0  0
  129.6173  132.6925  159.5732 H   0  0  0  0  0  0  0  0  0  0  0  0
  129.8221  135.1605  157.9281 H   0  0  0  0  0  0  0  0  0  0  0  0
  131.1300  132.8844  153.2044 H   0  0  0  0  0  0  0  0  0  0  0  0
  131.4670  130.5429  152.5451 H   0  0  0  0  0  0  0  0  0  0  0  0
  131.2101  128.7364  154.1943 H   0  0  0  0  0  0  0  0  0  0  0  0
  130.6136  129.2526  156.5201 H   0  0  0  0  0  0  0  0  0  0  0  0
  127.5345  137.1830  162.5406 H   0  0  0  0  0  0  0  0  0  0  0  0
  132.3493  140.1001  164.8138 H   0  0  0  0  0  0  0  0  0  0  0  0
  131.2495  141.1131  166.7650 H   0  0  0  0  0  0  0  0  0  0  0  0
  130.6480  142.8676  167.7885 H   0  0  0  0  0  0  0  0  0  0  0  0
  129.5362  143.8813  169.7350 H   0  0  0  0  0  0  0  0  0  0  0  0
  1 38  2  0
  1  2  1  0
  1 39  1  0
  2  3  2  0
  2 40  1  0
  3  4  1  0
  3 41  1  0
  4  5  1  0
  4 37  2  0
  5 36  1  0
  5  6  2  0
  6  7  1  0
  6 42  1  0
  7  8  2  0
  7 43  1  0
  8  9  1  0
  8 35  1  0
  9 10  1  0
 10 34  1  0
 10 11  2  0
 11 12  1  0
 11 44  1  0
 12 13  2  0
 13 14  1  0
 13 33  1  0
 14 19  1  0
 14 15  2  0
 15 16  1  0
 16 17  1  0
 16 18  1  0
 18 19  2  0
 18 45  1  0
 19 20  1  0
 20 21  1  0
 20 46  1  0
 20 47  1  0
 21 22  1  0
 21 48  1  0
 22 31  1  0
 22 23  2  0
 23 24  1  0
 23 25  1  0
 25 30  2  0
 25 26  1  0
 26 27  2  0
 26 49  1  0
 27 28  1  0
 27 50  1  0
 28 29  2  0
 28 51  1  0
 29 30  1  0
 29 52  1  0
 30 31  1  0
 31 32  1  0
 33 34  2  0
 33 53  1  0
 35 36  2  0
 35 54  1  0
 36 55  1  0
 37 38  1  0
 37 56  1  0
 38 57  1  0
M  CHG  1  23   1
M  END
>  <DOCK_score>  (1) 
-48.733101

>  <SMILES>  (1) 
c1ccc(-c2ccc(Sc3cnc(-c4n[nH]cc4CNc4[nH]c5ccccc5[nH+]4)cn3)cc2)cc1

$$$$
