Nc1ccc(-c2c[nH]c(NC(c3ccccc3Cl)c3ccccc3Cl)[nH+]2)cc1
     RDKit          3D

 47 50  0  0  1  0  0  0  0  0999 V2000
  131.3034  129.6733  152.3673 N   0  0  0  0  0  0  0  0  0  0  0  0
  130.9862  130.4239  153.5019 C   0  0  0  0  0  0  0  0  0  0  0  0
  130.3081  131.6297  153.3689 C   0  0  0  0  0  0  0  0  0  0  0  0
  129.9940  132.3723  154.4876 C   0  0  0  0  0  0  0  0  0  0  0  0
  130.3572  131.9127  155.7526 C   0  0  0  0  0  0  0  0  0  0  0  0
  130.0204  132.7099  156.9575 C   0  0  0  0  0  0  0  0  0  0  0  0
  129.2437  132.3030  157.9918 C   0  0  0  0  0  0  0  0  0  0  0  0
  129.1950  133.3449  158.8876 N   0  0  0  0  0  0  0  0  0  0  0  0
  128.7156  133.3559  159.7308 H   0  0  0  0  0  0  0  0  0  0  0  0
  129.9441  134.3576  158.3731 C   0  0  0  0  0  0  0  0  0  0  0  0
  130.1528  135.5895  158.9691 N   0  0  0  0  0  0  0  0  0  0  0  0
  129.5411  135.8887  160.2663 C   0  0  0  0  0  0  0  0  0  0  0  0
  129.9214  137.2836  160.6912 C   0  0  0  0  0  0  0  0  0  0  0  0
  131.1312  137.8218  160.2940 C   0  0  0  0  0  0  0  0  0  0  0  0
  131.4799  139.1013  160.6837 C   0  0  0  0  0  0  0  0  0  0  0  0
  130.6195  139.8434  161.4709 C   0  0  0  0  0  0  0  0  0  0  0  0
  129.4069  139.3090  161.8635 C   0  0  0  0  0  0  0  0  0  0  0  0
  129.0596  138.0262  161.4785 C   0  0  0  0  0  0  0  0  0  0  0  0
  127.5399  137.3512  161.9771 Cl  0  0  0  0  0  0  0  0  0  0  0  0
  130.0312  134.8999  161.2926 C   0  0  0  0  0  0  0  0  0  0  0  0
  131.3814  134.8070  161.5737 C   0  0  0  0  0  0  0  0  0  0  0  0
  131.8303  133.9037  162.5188 C   0  0  0  0  0  0  0  0  0  0  0  0
  130.9298  133.0845  163.1754 C   0  0  0  0  0  0  0  0  0  0  0  0
  129.5808  133.1729  162.8914 C   0  0  0  0  0  0  0  0  0  0  0  0
  129.1303  134.0809  161.9494 C   0  0  0  0  0  0  0  0  0  0  0  0
  127.4352  134.1920  161.5919 Cl  0  0  0  0  0  0  0  0  0  0  0  0
  130.4310  133.9765  157.2172 N   0  0  0  0  0  0  0  0  0  0  0  0
  130.9964  134.5136  156.6405 H   0  0  0  0  0  0  0  0  0  0  0  0
  131.0424  130.7058  155.8831 C   0  0  0  0  0  0  0  0  0  0  0  0
  131.3489  129.9634  154.7622 C   0  0  0  0  0  0  0  0  0  0  0  0
  131.0502  129.9936  151.4874 H   0  0  0  0  0  0  0  0  0  0  0  0
  131.7765  128.8315  152.4593 H   0  0  0  0  0  0  0  0  0  0  0  0
  130.0271  131.9855  152.3887 H   0  0  0  0  0  0  0  0  0  0  0  0
  129.4667  133.3092  154.3838 H   0  0  0  0  0  0  0  0  0  0  0  0
  128.7564  131.3445  158.0926 H   0  0  0  0  0  0  0  0  0  0  0  0
  130.7041  136.2548  158.5280 H   0  0  0  0  0  0  0  0  0  0  0  0
  128.4569  135.8174  160.1818 H   0  0  0  0  0  0  0  0  0  0  0  0
  131.8040  137.2423  159.6793 H   0  0  0  0  0  0  0  0  0  0  0  0
  132.4255  139.5210  160.3736 H   0  0  0  0  0  0  0  0  0  0  0  0
  130.8924  140.8431  161.7754 H   0  0  0  0  0  0  0  0  0  0  0  0
  128.7325  139.8907  162.4744 H   0  0  0  0  0  0  0  0  0  0  0  0
  132.0852  135.4434  161.0579 H   0  0  0  0  0  0  0  0  0  0  0  0
  132.8849  133.8347  162.7413 H   0  0  0  0  0  0  0  0  0  0  0  0
  131.2815  132.3756  163.9104 H   0  0  0  0  0  0  0  0  0  0  0  0
  128.8780  132.5336  163.4046 H   0  0  0  0  0  0  0  0  0  0  0  0
  131.3286  130.3501  156.8618 H   0  0  0  0  0  0  0  0  0  0  0  0
  131.8758  129.0262  154.8633 H   0  0  0  0  0  0  0  0  0  0  0  0
  1  2  1  0
  1 31  1  0
  1 32  1  0
  2 30  2  0
  2  3  1  0
  3  4  2  0
  3 33  1  0
  4  5  1  0
  4 34  1  0
  5  6  1  0
  5 29  2  0
  6 27  1  0
  6  7  2  0
  7  8  1  0
  7 35  1  0
  8  9  1  0
  8 10  1  0
 10 11  1  0
 10 27  2  0
 11 12  1  0
 11 36  1  0
 12 13  1  0
 12 20  1  0
 12 37  1  0
 13 18  1  0
 13 14  2  0
 14 15  1  0
 14 38  1  0
 15 16  2  0
 15 39  1  0
 16 17  1  0
 16 40  1  0
 17 18  2  0
 17 41  1  0
 18 19  1  0
 20 25  1  0
 20 21  2  0
 21 22  1  0
 21 42  1  0
 22 23  2  0
 22 43  1  0
 23 24  1  0
 23 44  1  0
 24 25  2  0
 24 45  1  0
 25 26  1  0
 27 28  1  0
 29 30  1  0
 29 46  1  0
 30 47  1  0
M  CHG  1  27   1
M  END
>  <DOCK_score>  (1) 
-56.837135

>  <SMILES>  (1) 
Nc1ccc(-c2c[nH]c(NC(c3ccccc3Cl)c3ccccc3Cl)[nH+]2)cc1

$$$$
