Oc1ccc(NC=C[C@H](Nc2ccc(Nc3[nH]cc(-c4ccc(O)cc4)[nH+]3)cc2)C(F)(F)F)cc1
     RDKit          3D

 58 61  0  0  1  0  0  0  0  0999 V2000
  129.0602  143.6223  168.2464 O   0  0  0  0  0  0  0  0  0  0  0  0
  128.3594  142.7938  167.4267 C   0  0  0  0  0  0  0  0  0  0  0  0
  128.4508  141.4192  167.5880 C   0  0  0  0  0  0  0  0  0  0  0  0
  127.7402  140.5771  166.7557 C   0  0  0  0  0  0  0  0  0  0  0  0
  126.9336  141.1069  165.7570 C   0  0  0  0  0  0  0  0  0  0  0  0
  126.2134  140.2543  164.9125 N   0  0  0  0  0  0  0  0  0  0  0  0
  126.7094  138.9915  164.6133 C   0  0  0  0  0  0  0  0  0  0  0  0
  126.0300  138.1872  163.8167 C   0  0  0  0  0  0  0  0  0  0  0  0
  126.5681  136.8173  163.4921 C   0  0  2  0  0  0  0  0  0  0  0  0
  127.6575  136.8398  163.5166 H   0  0  0  0  0  0  0  0  0  0  0  0
  126.1177  136.4201  162.1559 N   0  0  0  0  0  0  0  0  0  0  0  0
  127.0561  136.1404  161.1558 C   0  0  0  0  0  0  0  0  0  0  0  0
  128.2860  136.7848  161.1576 C   0  0  0  0  0  0  0  0  0  0  0  0
  129.2094  136.5130  160.1677 C   0  0  0  0  0  0  0  0  0  0  0  0
  128.9120  135.5876  159.1759 C   0  0  0  0  0  0  0  0  0  0  0  0
  129.8507  135.3080  158.1748 N   0  0  0  0  0  0  0  0  0  0  0  0
  129.8871  134.0526  157.5908 C   0  0  0  0  0  0  0  0  0  0  0  0
  129.5468  132.8843  158.2006 N   0  0  0  0  0  0  0  0  0  0  0  0
  129.2373  132.7817  159.1141 H   0  0  0  0  0  0  0  0  0  0  0  0
  129.7197  131.8771  157.2818 C   0  0  0  0  0  0  0  0  0  0  0  0
  130.1679  132.4579  156.1411 C   0  0  0  0  0  0  0  0  0  0  0  0
  130.4983  131.7567  154.8761 C   0  0  0  0  0  0  0  0  0  0  0  0
  130.3369  132.4075  153.6542 C   0  0  0  0  0  0  0  0  0  0  0  0
  130.6491  131.7544  152.4801 C   0  0  0  0  0  0  0  0  0  0  0  0
  131.1139  130.4468  152.5139 C   0  0  0  0  0  0  0  0  0  0  0  0
  131.4162  129.8044  151.3551 O   0  0  0  0  0  0  0  0  0  0  0  0
  131.2710  129.7944  153.7289 C   0  0  0  0  0  0  0  0  0  0  0  0
  130.9651  130.4438  154.9067 C   0  0  0  0  0  0  0  0  0  0  0  0
  130.2605  133.7929  156.3613 N   0  0  0  0  0  0  0  0  0  0  0  0
  130.5563  134.4506  155.7125 H   0  0  0  0  0  0  0  0  0  0  0  0
  127.6837  134.9395  159.1766 C   0  0  0  0  0  0  0  0  0  0  0  0
  126.7583  135.2151  160.1637 C   0  0  0  0  0  0  0  0  0  0  0  0
  126.0553  135.8104  164.5236 C   0  0  0  0  0  0  0  0  0  0  0  0
  124.6568  135.7818  164.4920 F   0  0  0  0  0  0  0  0  0  0  0  0
  126.5548  134.5389  164.2222 F   0  0  0  0  0  0  0  0  0  0  0  0
  126.4852  136.1901  165.7996 F   0  0  0  0  0  0  0  0  0  0  0  0
  126.8464  142.4834  165.5930 C   0  0  0  0  0  0  0  0  0  0  0  0
  127.5540  143.3240  166.4295 C   0  0  0  0  0  0  0  0  0  0  0  0
  129.5924  143.1617  168.9095 H   0  0  0  0  0  0  0  0  0  0  0  0
  129.0782  141.0074  168.3647 H   0  0  0  0  0  0  0  0  0  0  0  0
  127.8121  139.5067  166.8810 H   0  0  0  0  0  0  0  0  0  0  0  0
  125.3680  140.5450  164.5363 H   0  0  0  0  0  0  0  0  0  0  0  0
  127.6508  138.6680  165.0323 H   0  0  0  0  0  0  0  0  0  0  0  0
  125.0887  138.5108  163.3978 H   0  0  0  0  0  0  0  0  0  0  0  0
  125.1693  136.3508  161.9643 H   0  0  0  0  0  0  0  0  0  0  0  0
  128.5189  137.5015  161.9313 H   0  0  0  0  0  0  0  0  0  0  0  0
  130.1646  137.0169  160.1672 H   0  0  0  0  0  0  0  0  0  0  0  0
  130.4751  135.9935  157.8904 H   0  0  0  0  0  0  0  0  0  0  0  0
  129.5375  130.8243  157.4391 H   0  0  0  0  0  0  0  0  0  0  0  0
  129.9715  133.4235  153.6270 H   0  0  0  0  0  0  0  0  0  0  0  0
  130.5276  132.2594  151.5331 H   0  0  0  0  0  0  0  0  0  0  0  0
  131.2754  130.3382  150.5611 H   0  0  0  0  0  0  0  0  0  0  0  0
  131.6328  128.7771  153.7520 H   0  0  0  0  0  0  0  0  0  0  0  0
  131.0877  129.9355  155.8519 H   0  0  0  0  0  0  0  0  0  0  0  0
  127.4525  134.2198  158.4053 H   0  0  0  0  0  0  0  0  0  0  0  0
  125.8029  134.7114  160.1639 H   0  0  0  0  0  0  0  0  0  0  0  0
  126.2225  142.8961  164.8142 H   0  0  0  0  0  0  0  0  0  0  0  0
  127.4836  144.3944  166.3044 H   0  0  0  0  0  0  0  0  0  0  0  0
  1  2  1  0
  1 39  1  0
  2 38  2  0
  2  3  1  0
  3  4  2  0
  3 40  1  0
  4  5  1  0
  4 41  1  0
  5  6  1  0
  5 37  2  0
  6  7  1  0
  6 42  1  0
  7  8  2  0
  7 43  1  0
  8  9  1  0
  8 44  1  0
  9 10  1  6
  9 11  1  0
  9 33  1  0
 11 12  1  0
 11 45  1  0
 12 32  1  0
 12 13  2  0
 13 14  1  0
 13 46  1  0
 14 15  2  0
 14 47  1  0
 15 16  1  0
 15 31  1  0
 16 48  1  0
 17 16  1  0
 17 29  2  0
 17 18  1  0
 18 19  1  0
 18 20  1  0
 20 21  2  0
 20 49  1  0
 21 22  1  0
 21 29  1  0
 22 28  1  0
 22 23  2  0
 23 24  1  0
 23 50  1  0
 24 25  2  0
 24 51  1  0
 25 26  1  0
 25 27  1  0
 26 52  1  0
 27 28  2  0
 27 53  1  0
 28 54  1  0
 29 30  1  0
 31 32  2  0
 31 55  1  0
 32 56  1  0
 33 34  1  0
 33 35  1  0
 33 36  1  0
 37 38  1  0
 37 57  1  0
 38 58  1  0
M  CHG  1  29   1
M  END
>  <DOCK_score>  (1) 
-59.897751

>  <SMILES>  (1) 
Oc1ccc(NC=C[C@H](Nc2ccc(Nc3[nH]cc(-c4ccc(O)cc4)[nH+]3)cc2)C(F)(F)F)cc1

$$$$
