CCc1ccc(CNc2ccc(-c3n[nH]cc3C[NH2+]CC3=CCCC3)o2)o1
     RDKit          3D

 54 57  0  0  0  0  0  0  0  0999 V2000
  126.6626  135.7065  157.6855 C   0  0  0  0  0  0  0  0  0  0  0  0
  125.4313  135.3411  158.5169 C   0  0  0  0  0  0  0  0  0  0  0  0
  125.8506  135.0509  159.9350 C   0  0  0  0  0  0  0  0  0  0  0  0
  125.4374  134.0101  160.6801 C   0  0  0  0  0  0  0  0  0  0  0  0
  126.0720  134.1291  161.9379 C   0  0  0  0  0  0  0  0  0  0  0  0
  126.8425  135.2305  161.8828 C   0  0  0  0  0  0  0  0  0  0  0  0
  127.7122  135.7540  162.9966 C   0  0  0  0  0  0  0  0  0  0  0  0
  127.5317  137.2030  163.1172 N   0  0  0  0  0  0  0  0  0  0  0  0
  128.3429  138.0672  162.3908 C   0  0  0  0  0  0  0  0  0  0  0  0
  128.0652  139.3644  162.1080 C   0  0  0  0  0  0  0  0  0  0  0  0
  129.1488  139.8624  161.3577 C   0  0  0  0  0  0  0  0  0  0  0  0
  130.0350  138.8412  161.2205 C   0  0  0  0  0  0  0  0  0  0  0  0
  131.3255  138.9057  160.5038 C   0  0  0  0  0  0  0  0  0  0  0  0
  131.8215  139.9627  159.8912 N   0  0  0  0  0  0  0  0  0  0  0  0
  133.0589  139.6053  159.3410 N   0  0  0  0  0  0  0  0  0  0  0  0
  133.6459  140.1883  158.8345 H   0  0  0  0  0  0  0  0  0  0  0  0
  133.2937  138.3088  159.6378 C   0  0  0  0  0  0  0  0  0  0  0  0
  132.2487  137.8488  160.3585 C   0  0  0  0  0  0  0  0  0  0  0  0
  132.0940  136.4536  160.9066 C   0  0  0  0  0  0  0  0  0  0  0  0
  131.4135  135.6104  159.9147 N   0  0  0  0  0  0  0  0  0  0  0  0
  130.5028  135.9958  159.7138 H   0  0  0  0  0  0  0  0  0  0  0  0
  131.9602  135.5802  159.0672 H   0  0  0  0  0  0  0  0  0  0  0  0
  131.2626  134.2504  160.4489 C   0  0  0  0  0  0  0  0  0  0  0  0
  130.5645  133.3855  159.4314 C   0  0  0  0  0  0  0  0  0  0  0  0
  129.2704  133.2332  159.3552 C   0  0  0  0  0  0  0  0  0  0  0  0
  128.8976  132.3036  158.2238 C   0  0  0  0  0  0  0  0  0  0  0  0
  130.1674  132.2222  157.3453 C   0  0  0  0  0  0  0  0  0  0  0  0
  131.2710  132.5753  158.3695 C   0  0  0  0  0  0  0  0  0  0  0  0
  129.5367  137.7598  161.8557 O   0  0  0  0  0  0  0  0  0  0  0  0
  126.7044  135.7847  160.6673 O   0  0  0  0  0  0  0  0  0  0  0  0
  127.1396  136.5894  158.1112 H   0  0  0  0  0  0  0  0  0  0  0  0
  127.3663  134.8741  157.6933 H   0  0  0  0  0  0  0  0  0  0  0  0
  126.3593  135.9164  156.6599 H   0  0  0  0  0  0  0  0  0  0  0  0
  124.9544  134.4583  158.0912 H   0  0  0  0  0  0  0  0  0  0  0  0
  124.7276  136.1736  158.5092 H   0  0  0  0  0  0  0  0  0  0  0  0
  124.7503  133.2338  160.3768 H   0  0  0  0  0  0  0  0  0  0  0  0
  125.9628  133.4615  162.7798 H   0  0  0  0  0  0  0  0  0  0  0  0
  127.4311  135.2736  163.9337 H   0  0  0  0  0  0  0  0  0  0  0  0
  128.7569  135.5351  162.7754 H   0  0  0  0  0  0  0  0  0  0  0  0
  126.8463  137.5591  163.7037 H   0  0  0  0  0  0  0  0  0  0  0  0
  127.1818  139.9114  162.4021 H   0  0  0  0  0  0  0  0  0  0  0  0
  129.2545  140.8634  160.9662 H   0  0  0  0  0  0  0  0  0  0  0  0
  134.1669  137.7407  159.3526 H   0  0  0  0  0  0  0  0  0  0  0  0
  133.0778  136.0373  161.1235 H   0  0  0  0  0  0  0  0  0  0  0  0
  131.5035  136.4863  161.8221 H   0  0  0  0  0  0  0  0  0  0  0  0
  132.2463  133.8341  160.6659 H   0  0  0  0  0  0  0  0  0  0  0  0
  130.6720  134.2832  161.3644 H   0  0  0  0  0  0  0  0  0  0  0  0
  128.5594  133.7106  160.0132 H   0  0  0  0  0  0  0  0  0  0  0  0
  128.0653  132.7131  157.6513 H   0  0  0  0  0  0  0  0  0  0  0  0
  128.6425  131.3186  158.6147 H   0  0  0  0  0  0  0  0  0  0  0  0
  130.1331  132.9549  156.5390 H   0  0  0  0  0  0  0  0  0  0  0  0
  130.3069  131.2155  156.9514 H   0  0  0  0  0  0  0  0  0  0  0  0
  132.0525  133.1694  157.8958 H   0  0  0  0  0  0  0  0  0  0  0  0
  131.6922  131.6677  158.8018 H   0  0  0  0  0  0  0  0  0  0  0  0
  1  2  1  0
  1 31  1  0
  1 32  1  0
  1 33  1  0
  2  3  1  0
  2 34  1  0
  2 35  1  0
  3 30  1  0
  3  4  2  0
  4  5  1  0
  4 36  1  0
  5  6  2  0
  5 37  1  0
  6  7  1  0
  6 30  1  0
  7  8  1  0
  7 38  1  0
  7 39  1  0
  8  9  1  0
  8 40  1  0
  9 29  1  0
  9 10  2  0
 10 11  1  0
 10 41  1  0
 11 12  2  0
 11 42  1  0
 12 13  1  0
 12 29  1  0
 13 18  1  0
 13 14  2  0
 14 15  1  0
 15 16  1  0
 15 17  1  0
 17 18  2  0
 17 43  1  0
 18 19  1  0
 19 20  1  0
 19 44  1  0
 19 45  1  0
 20 21  1  0
 20 22  1  0
 20 23  1  0
 23 24  1  0
 23 46  1  0
 23 47  1  0
 24 28  1  0
 24 25  2  0
 25 26  1  0
 25 48  1  0
 26 27  1  0
 26 49  1  0
 26 50  1  0
 27 28  1  0
 27 51  1  0
 27 52  1  0
 28 53  1  0
 28 54  1  0
M  CHG  1  20   1
M  END
>  <DOCK_score>  (1) 
-40.980618

>  <SMILES>  (1) 
CCc1ccc(CNc2ccc(-c3n[nH]cc3C[NH2+]CC3=CCCC3)o2)o1

$$$$
