Nc1ccccc1[C@@H](Nc1[nH]cc(-c2cccnc2)[nH+]1)c1ccc(F)cc1
     RDKit          3D

 46 49  0  0  1  0  0  0  0  0999 V2000
  126.3997  135.4608  161.0259 N   0  0  0  0  0  0  0  0  0  0  0  0
  126.4406  135.6175  159.6386 C   0  0  0  0  0  0  0  0  0  0  0  0
  125.2623  135.6129  158.9026 C   0  0  0  0  0  0  0  0  0  0  0  0
  125.3062  135.7685  157.5312 C   0  0  0  0  0  0  0  0  0  0  0  0
  126.5212  135.9290  156.8904 C   0  0  0  0  0  0  0  0  0  0  0  0
  127.6954  135.9392  157.6205 C   0  0  0  0  0  0  0  0  0  0  0  0
  127.6591  135.7787  158.9920 C   0  0  0  0  0  0  0  0  0  0  0  0
  128.9398  135.7848  159.7863 C   0  0  1  0  0  0  0  0  0  0  0  0
  128.8213  135.1597  160.6714 H   0  0  0  0  0  0  0  0  0  0  0  0
  130.0295  135.2599  158.9599 N   0  0  0  0  0  0  0  0  0  0  0  0
  129.9563  133.9735  158.4533 C   0  0  0  0  0  0  0  0  0  0  0  0
  129.3182  132.9251  159.0415 N   0  0  0  0  0  0  0  0  0  0  0  0
  128.8370  132.9446  159.8834 H   0  0  0  0  0  0  0  0  0  0  0  0
  129.4792  131.8350  158.2213 C   0  0  0  0  0  0  0  0  0  0  0  0
  130.2171  132.2462  157.1605 C   0  0  0  0  0  0  0  0  0  0  0  0
  130.6448  131.4049  156.0160 C   0  0  0  0  0  0  0  0  0  0  0  0
  130.2498  131.7237  154.7133 C   0  0  0  0  0  0  0  0  0  0  0  0
  130.6793  130.9097  153.6796 C   0  0  0  0  0  0  0  0  0  0  0  0
  131.4694  129.8113  153.9667 C   0  0  0  0  0  0  0  0  0  0  0  0
  131.8220  129.5329  155.2067 N   0  0  0  0  0  0  0  0  0  0  0  0
  131.4419  130.2808  156.2224 C   0  0  0  0  0  0  0  0  0  0  0  0
  130.4948  133.5632  157.3311 N   0  0  0  0  0  0  0  0  0  0  0  0
  131.0097  134.1132  156.7202 H   0  0  0  0  0  0  0  0  0  0  0  0
  129.2631  137.1953  160.2072 C   0  0  0  0  0  0  0  0  0  0  0  0
  128.7813  137.6857  161.4066 C   0  0  0  0  0  0  0  0  0  0  0  0
  129.0811  138.9774  161.7960 C   0  0  0  0  0  0  0  0  0  0  0  0
  129.8558  139.7838  160.9793 C   0  0  0  0  0  0  0  0  0  0  0  0
  130.1456  141.0482  161.3567 F   0  0  0  0  0  0  0  0  0  0  0  0
  130.3333  139.2933  159.7758 C   0  0  0  0  0  0  0  0  0  0  0  0
  130.0364  137.9996  159.3911 C   0  0  0  0  0  0  0  0  0  0  0  0
  127.2231  135.4642  161.5389 H   0  0  0  0  0  0  0  0  0  0  0  0
  125.5482  135.3482  161.4765 H   0  0  0  0  0  0  0  0  0  0  0  0
  124.3130  135.4881  159.4023 H   0  0  0  0  0  0  0  0  0  0  0  0
  124.3906  135.7648  156.9584 H   0  0  0  0  0  0  0  0  0  0  0  0
  126.5527  136.0502  155.8177 H   0  0  0  0  0  0  0  0  0  0  0  0
  128.6423  136.0691  157.1174 H   0  0  0  0  0  0  0  0  0  0  0  0
  130.8024  135.8135  158.7676 H   0  0  0  0  0  0  0  0  0  0  0  0
  129.0951  130.8399  158.3909 H   0  0  0  0  0  0  0  0  0  0  0  0
  129.6286  132.5854  154.5183 H   0  0  0  0  0  0  0  0  0  0  0  0
  130.3967  131.1273  152.6602 H   0  0  0  0  0  0  0  0  0  0  0  0
  131.8031  129.1720  153.1629 H   0  0  0  0  0  0  0  0  0  0  0  0
  131.7515  130.0209  157.2239 H   0  0  0  0  0  0  0  0  0  0  0  0
  128.1739  137.0578  162.0415 H   0  0  0  0  0  0  0  0  0  0  0  0
  128.7082  139.3590  162.7349 H   0  0  0  0  0  0  0  0  0  0  0  0
  130.9371  139.9215  159.1378 H   0  0  0  0  0  0  0  0  0  0  0  0
  130.4091  137.6165  158.4525 H   0  0  0  0  0  0  0  0  0  0  0  0
  1  2  1  0
  1 31  1  0
  1 32  1  0
  2  7  2  0
  2  3  1  0
  3  4  2  0
  3 33  1  0
  4  5  1  0
  4 34  1  0
  5  6  2  0
  5 35  1  0
  6  7  1  0
  6 36  1  0
  7  8  1  0
  8  9  1  1
  8 10  1  0
  8 24  1  0
 10 37  1  0
 11 10  1  0
 11 22  2  0
 11 12  1  0
 12 13  1  0
 12 14  1  0
 14 15  2  0
 14 38  1  0
 15 16  1  0
 15 22  1  0
 16 21  1  0
 16 17  2  0
 17 18  1  0
 17 39  1  0
 18 19  2  0
 18 40  1  0
 19 20  1  0
 19 41  1  0
 20 21  2  0
 21 42  1  0
 22 23  1  0
 24 30  1  0
 24 25  2  0
 25 26  1  0
 25 43  1  0
 26 27  2  0
 26 44  1  0
 27 28  1  0
 27 29  1  0
 29 30  2  0
 29 45  1  0
 30 46  1  0
M  CHG  1  22   1
M  END
>  <DOCK_score>  (1) 
-62.085415

>  <SMILES>  (1) 
Nc1ccccc1[C@@H](Nc1[nH]cc(-c2cccnc2)[nH+]1)c1ccc(F)cc1

$$$$
