CC[NH2+][C@H](CO)Cc1c[nH]c2ccc(O)cc12
     RDKit          3D

 36 37  0  0  1  0  0  0  0  0999 V2000
  130.1918  138.5700  159.5038 C   0  0  0  0  0  0  0  0  0  0  0  0
  129.4947  137.2391  159.7935 C   0  0  0  0  0  0  0  0  0  0  0  0
  130.3945  136.1300  159.4498 N   0  0  0  0  0  0  0  0  0  0  0  0
  131.2361  136.1960  160.0023 H   0  0  0  0  0  0  0  0  0  0  0  0
  130.6305  136.1796  158.4700 H   0  0  0  0  0  0  0  0  0  0  0  0
  129.7252  134.8522  159.7280 C   0  0  2  0  0  0  0  0  0  0  0  0
  129.1641  134.9312  160.6593 H   0  0  0  0  0  0  0  0  0  0  0  0
  130.7731  133.7449  159.8563 C   0  0  0  0  0  0  0  0  0  0  0  0
  131.5086  133.6415  158.6355 O   0  0  0  0  0  0  0  0  0  0  0  0
  128.7676  134.5181  158.5826 C   0  0  0  0  0  0  0  0  0  0  0  0
  128.0810  133.2074  158.8679 C   0  0  0  0  0  0  0  0  0  0  0  0
  128.5070  131.9873  158.5048 C   0  0  0  0  0  0  0  0  0  0  0  0
  127.6262  131.0363  158.9421 N   0  0  0  0  0  0  0  0  0  0  0  0
  127.7218  130.0813  158.8017 H   0  0  0  0  0  0  0  0  0  0  0  0
  126.5786  131.6384  159.6067 C   0  0  0  0  0  0  0  0  0  0  0  0
  125.4357  131.1490  160.2302 C   0  0  0  0  0  0  0  0  0  0  0  0
  124.5493  132.0193  160.8239 C   0  0  0  0  0  0  0  0  0  0  0  0
  124.7842  133.3919  160.8078 C   0  0  0  0  0  0  0  0  0  0  0  0
  123.8987  134.2376  161.3993 O   0  0  0  0  0  0  0  0  0  0  0  0
  125.9126  133.8974  160.1941 C   0  0  0  0  0  0  0  0  0  0  0  0
  126.8187  133.0239  159.5886 C   0  0  0  0  0  0  0  0  0  0  0  0
  129.5242  139.3929  159.7590 H   0  0  0  0  0  0  0  0  0  0  0  0
  131.1010  138.6412  160.1008 H   0  0  0  0  0  0  0  0  0  0  0  0
  130.4469  138.6236  158.4455 H   0  0  0  0  0  0  0  0  0  0  0  0
  128.5855  137.1678  159.1966 H   0  0  0  0  0  0  0  0  0  0  0  0
  129.2397  137.1854  160.8520 H   0  0  0  0  0  0  0  0  0  0  0  0
  131.4553  133.9830  160.6725 H   0  0  0  0  0  0  0  0  0  0  0  0
  130.2765  132.7968  160.0627 H   0  0  0  0  0  0  0  0  0  0  0  0
  131.9772  134.4508  158.3889 H   0  0  0  0  0  0  0  0  0  0  0  0
  128.0210  135.3071  158.4912 H   0  0  0  0  0  0  0  0  0  0  0  0
  129.3286  134.4392  157.6513 H   0  0  0  0  0  0  0  0  0  0  0  0
  129.4125  131.7860  157.9515 H   0  0  0  0  0  0  0  0  0  0  0  0
  125.2438  130.0863  160.2491 H   0  0  0  0  0  0  0  0  0  0  0  0
  123.6632  131.6340  161.3065 H   0  0  0  0  0  0  0  0  0  0  0  0
  124.1446  135.1707  161.3379 H   0  0  0  0  0  0  0  0  0  0  0  0
  126.0939  134.9621  160.1825 H   0  0  0  0  0  0  0  0  0  0  0  0
  1  2  1  0
  1 22  1  0
  1 23  1  0
  1 24  1  0
  2  3  1  0
  2 25  1  0
  2 26  1  0
  3  4  1  0
  3  5  1  0
  3  6  1  0
  6  7  1  1
  6  8  1  0
  6 10  1  0
  8  9  1  0
  8 27  1  0
  8 28  1  0
  9 29  1  0
 10 11  1  0
 10 30  1  0
 10 31  1  0
 11 21  1  0
 11 12  2  0
 12 13  1  0
 12 32  1  0
 13 14  1  0
 13 15  1  0
 15 21  2  0
 15 16  1  0
 16 17  2  0
 16 33  1  0
 17 18  1  0
 17 34  1  0
 18 19  1  0
 18 20  2  0
 19 35  1  0
 20 21  1  0
 20 36  1  0
M  CHG  1   3   1
M  END
>  <DOCK_score>  (1) 
-42.874474

>  <SMILES>  (1) 
CC[NH2+][C@H](CO)Cc1c[nH]c2ccc(O)cc12

$$$$
