Cc1c(Nc2nc3ccccc3[nH]2)cccc1N1CC[NH+](C(c2ccccc2)c2ccccc2)CC1
     RDKit          3D

 68 73  0  0  1  0  0  0  0  0999 V2000
  133.7967  138.0929  163.4862 C   0  0  0  0  0  0  0  0  0  0  0  0
  134.2919  138.6881  162.1935 C   0  0  0  0  0  0  0  0  0  0  0  0
  135.2482  139.6940  162.2122 C   0  0  0  0  0  0  0  0  0  0  0  0
  135.7532  140.1568  163.4309 N   0  0  0  0  0  0  0  0  0  0  0  0
  134.9017  140.7118  164.3648 C   0  0  0  0  0  0  0  0  0  0  0  0
  133.6085  140.8533  164.2135 N   0  0  0  0  0  0  0  0  0  0  0  0
  133.0802  141.4334  165.3228 C   0  0  0  0  0  0  0  0  0  0  0  0
  131.7833  141.8049  165.6867 C   0  0  0  0  0  0  0  0  0  0  0  0
  131.5579  142.3880  166.9134 C   0  0  0  0  0  0  0  0  0  0  0  0
  132.6087  142.6101  167.7910 C   0  0  0  0  0  0  0  0  0  0  0  0
  133.8950  142.2488  167.4470 C   0  0  0  0  0  0  0  0  0  0  0  0
  134.1397  141.6548  166.2180 C   0  0  0  0  0  0  0  0  0  0  0  0
  135.2819  141.1944  165.5844 N   0  0  0  0  0  0  0  0  0  0  0  0
  136.1835  141.2083  165.9420 H   0  0  0  0  0  0  0  0  0  0  0  0
  135.6988  140.2444  161.0187 C   0  0  0  0  0  0  0  0  0  0  0  0
  135.2047  139.7833  159.8134 C   0  0  0  0  0  0  0  0  0  0  0  0
  134.2526  138.7827  159.7912 C   0  0  0  0  0  0  0  0  0  0  0  0
  133.7933  138.2317  160.9817 C   0  0  0  0  0  0  0  0  0  0  0  0
  132.8312  137.2195  160.9584 N   0  0  0  0  0  0  0  0  0  0  0  0
  133.3496  136.0154  160.2940 C   0  0  0  0  0  0  0  0  0  0  0  0
  132.2892  134.9132  160.3421 C   0  0  0  0  0  0  0  0  0  0  0  0
  131.0689  135.3778  159.6691 N   0  0  0  0  0  0  0  0  0  0  0  0
  131.2820  135.6115  158.7109 H   0  0  0  0  0  0  0  0  0  0  0  0
  130.0575  134.3130  159.6997 C   0  0  0  0  0  0  0  0  0  0  0  0
  128.8056  134.7894  159.0093 C   0  0  0  0  0  0  0  0  0  0  0  0
  127.5725  134.3019  159.4004 C   0  0  0  0  0  0  0  0  0  0  0  0
  126.4237  134.7427  158.7704 C   0  0  0  0  0  0  0  0  0  0  0  0
  126.5088  135.6627  157.7423 C   0  0  0  0  0  0  0  0  0  0  0  0
  127.7423  136.1463  157.3477 C   0  0  0  0  0  0  0  0  0  0  0  0
  128.8907  135.7096  157.9813 C   0  0  0  0  0  0  0  0  0  0  0  0
  130.5896  133.0942  158.9907 C   0  0  0  0  0  0  0  0  0  0  0  0
  130.3742  132.9344  157.6346 C   0  0  0  0  0  0  0  0  0  0  0  0
  130.8663  131.8189  156.9834 C   0  0  0  0  0  0  0  0  0  0  0  0
  131.5648  130.8579  157.6902 C   0  0  0  0  0  0  0  0  0  0  0  0
  131.7758  131.0152  159.0473 C   0  0  0  0  0  0  0  0  0  0  0  0
  131.2880  132.1333  159.6976 C   0  0  0  0  0  0  0  0  0  0  0  0
  130.5496  136.5661  160.3587 C   0  0  0  0  0  0  0  0  0  0  0  0
  131.5955  137.6820  160.3108 C   0  0  0  0  0  0  0  0  0  0  0  0
  132.9327  138.6566  163.8384 H   0  0  0  0  0  0  0  0  0  0  0  0
  133.5104  137.0542  163.3218 H   0  0  0  0  0  0  0  0  0  0  0  0
  134.5889  138.1375  164.2338 H   0  0  0  0  0  0  0  0  0  0  0  0
  136.7021  140.0880  163.6203 H   0  0  0  0  0  0  0  0  0  0  0  0
  130.9605  141.6348  165.0082 H   0  0  0  0  0  0  0  0  0  0  0  0
  130.5553  142.6749  167.1942 H   0  0  0  0  0  0  0  0  0  0  0  0
  132.4188  143.0688  168.7502 H   0  0  0  0  0  0  0  0  0  0  0  0
  134.7089  142.4245  168.1348 H   0  0  0  0  0  0  0  0  0  0  0  0
  136.4394  141.0303  161.0328 H   0  0  0  0  0  0  0  0  0  0  0  0
  135.5604  140.2093  158.8869 H   0  0  0  0  0  0  0  0  0  0  0  0
  133.8648  138.4279  158.8477 H   0  0  0  0  0  0  0  0  0  0  0  0
  133.5869  136.2466  159.2556 H   0  0  0  0  0  0  0  0  0  0  0  0
  134.2500  135.6764  160.8064 H   0  0  0  0  0  0  0  0  0  0  0  0
  132.0620  134.6727  161.3808 H   0  0  0  0  0  0  0  0  0  0  0  0
  132.6664  134.0238  159.8374 H   0  0  0  0  0  0  0  0  0  0  0  0
  129.8278  134.0598  160.7348 H   0  0  0  0  0  0  0  0  0  0  0  0
  127.5064  133.5798  160.2006 H   0  0  0  0  0  0  0  0  0  0  0  0
  125.4599  134.3647  159.0783 H   0  0  0  0  0  0  0  0  0  0  0  0
  125.6117  136.0038  157.2471 H   0  0  0  0  0  0  0  0  0  0  0  0
  127.8089  136.8649  156.5443 H   0  0  0  0  0  0  0  0  0  0  0  0
  129.8544  136.0869  157.6729 H   0  0  0  0  0  0  0  0  0  0  0  0
  129.8246  133.6830  157.0833 H   0  0  0  0  0  0  0  0  0  0  0  0
  130.7013  131.6959  155.9232 H   0  0  0  0  0  0  0  0  0  0  0  0
  131.9456  129.9841  157.1823 H   0  0  0  0  0  0  0  0  0  0  0  0
  132.3211  130.2643  159.5997 H   0  0  0  0  0  0  0  0  0  0  0  0
  131.4525  132.2560  160.7579 H   0  0  0  0  0  0  0  0  0  0  0  0
  130.3315  136.3172  161.3973 H   0  0  0  0  0  0  0  0  0  0  0  0
  129.6371  136.9021  159.8663 H   0  0  0  0  0  0  0  0  0  0  0  0
  131.2163  138.5589  160.8354 H   0  0  0  0  0  0  0  0  0  0  0  0
  131.8040  137.9407  159.2725 H   0  0  0  0  0  0  0  0  0  0  0  0
  1  2  1  0
  1 39  1  0
  1 40  1  0
  1 41  1  0
  2 18  2  0
  2  3  1  0
  3  4  1  0
  3 15  2  0
  4  5  1  0
  4 42  1  0
  5 13  1  0
  5  6  2  0
  6  7  1  0
  7 12  2  0
  7  8  1  0
  8  9  2  0
  8 43  1  0
  9 10  1  0
  9 44  1  0
 10 11  2  0
 10 45  1  0
 11 12  1  0
 11 46  1  0
 12 13  1  0
 13 14  1  0
 15 16  1  0
 15 47  1  0
 16 17  2  0
 16 48  1  0
 17 18  1  0
 17 49  1  0
 18 19  1  0
 19 38  1  0
 19 20  1  0
 20 21  1  0
 20 50  1  0
 20 51  1  0
 21 22  1  0
 21 52  1  0
 21 53  1  0
 22 23  1  0
 22 24  1  0
 22 37  1  0
 24 25  1  0
 24 31  1  0
 24 54  1  0
 25 30  1  0
 25 26  2  0
 26 27  1  0
 26 55  1  0
 27 28  2  0
 27 56  1  0
 28 29  1  0
 28 57  1  0
 29 30  2  0
 29 58  1  0
 30 59  1  0
 31 36  1  0
 31 32  2  0
 32 33  1  0
 32 60  1  0
 33 34  2  0
 33 61  1  0
 34 35  1  0
 34 62  1  0
 35 36  2  0
 35 63  1  0
 36 64  1  0
 37 38  1  0
 37 65  1  0
 37 66  1  0
 38 67  1  0
 38 68  1  0
M  CHG  1  22   1
M  END
>  <DOCK_score>  (1) 
-62.653648

>  <SMILES>  (1) 
Cc1c(Nc2nc3ccccc3[nH]2)cccc1N1CC[NH+](C(c2ccccc2)c2ccccc2)CC1

$$$$
