CC1=CC[C@@H](C(Nc2[nH]cc(-c3ccc(N)cc3)[nH+]2)C2=CCCCCC2)C1=O
     RDKit          3D

 57 60  0  0  1  0  0  0  0  0999 V2000
  132.4730  135.5442  163.9623 C   0  0  0  0  0  0  0  0  0  0  0  0
  132.2856  135.5094  162.4673 C   0  0  0  0  0  0  0  0  0  0  0  0
  133.2740  135.6493  161.5958 C   0  0  0  0  0  0  0  0  0  0  0  0
  132.7497  135.5659  160.1841 C   0  0  0  0  0  0  0  0  0  0  0  0
  131.2328  135.3454  160.3196 C   0  0  1  0  0  0  0  0  0  0  0  0
  130.6849  136.1673  159.8589 H   0  0  0  0  0  0  0  0  0  0  0  0
  130.8266  134.0122  159.6882 C   0  0  2  0  0  0  0  0  0  0  0  0
  131.1818  134.0168  158.2668 N   0  0  0  0  0  0  0  0  0  0  0  0
  130.9094  132.9095  157.4817 C   0  0  0  0  0  0  0  0  0  0  0  0
  130.3232  131.7587  157.9105 N   0  0  0  0  0  0  0  0  0  0  0  0
  130.0234  131.5683  158.8132 H   0  0  0  0  0  0  0  0  0  0  0  0
  130.2319  130.9170  156.8273 C   0  0  0  0  0  0  0  0  0  0  0  0
  130.7716  131.5750  155.7716 C   0  0  0  0  0  0  0  0  0  0  0  0
  130.8959  131.0529  154.3886 C   0  0  0  0  0  0  0  0  0  0  0  0
  130.2713  131.7159  153.3334 C   0  0  0  0  0  0  0  0  0  0  0  0
  130.3935  131.2324  152.0477 C   0  0  0  0  0  0  0  0  0  0  0  0
  131.1288  130.0781  151.8053 C   0  0  0  0  0  0  0  0  0  0  0  0
  131.2459  129.5866  150.5030 N   0  0  0  0  0  0  0  0  0  0  0  0
  131.7471  129.4120  152.8567 C   0  0  0  0  0  0  0  0  0  0  0  0
  131.6329  129.8953  154.1430 C   0  0  0  0  0  0  0  0  0  0  0  0
  131.1783  132.7947  156.2039 N   0  0  0  0  0  0  0  0  0  0  0  0
  131.6006  133.4738  155.6549 H   0  0  0  0  0  0  0  0  0  0  0  0
  129.3391  133.8200  159.8336 C   0  0  0  0  0  0  0  0  0  0  0  0
  128.8824  132.7970  160.4835 C   0  0  0  0  0  0  0  0  0  0  0  0
  127.3904  132.5943  160.6409 C   0  0  0  0  0  0  0  0  0  0  0  0
  126.8509  133.6419  161.6173 C   0  0  0  0  0  0  0  0  0  0  0  0
  126.5257  134.9360  160.8925 C   0  0  0  0  0  0  0  0  0  0  0  0
  127.7471  135.6442  160.3336 C   0  0  0  0  0  0  0  0  0  0  0  0
  128.3867  134.8202  159.2140 C   0  0  0  0  0  0  0  0  0  0  0  0
  130.9953  135.3180  161.8144 C   0  0  0  0  0  0  0  0  0  0  0  0
  129.9268  135.1647  162.3681 O   0  0  0  0  0  0  0  0  0  0  0  0
  133.5270  135.6994  164.1927 H   0  0  0  0  0  0  0  0  0  0  0  0
  131.8850  136.3597  164.3834 H   0  0  0  0  0  0  0  0  0  0  0  0
  132.1427  134.5984  164.3920 H   0  0  0  0  0  0  0  0  0  0  0  0
  134.3102  135.8011  161.8594 H   0  0  0  0  0  0  0  0  0  0  0  0
  133.2074  134.7262  159.6610 H   0  0  0  0  0  0  0  0  0  0  0  0
  132.9494  136.4962  159.6523 H   0  0  0  0  0  0  0  0  0  0  0  0
  131.3490  133.1982  160.1907 H   0  0  0  0  0  0  0  0  0  0  0  0
  131.6079  134.7955  157.8759 H   0  0  0  0  0  0  0  0  0  0  0  0
  129.8143  129.9212  156.8196 H   0  0  0  0  0  0  0  0  0  0  0  0
  129.6962  132.6104  153.5220 H   0  0  0  0  0  0  0  0  0  0  0  0
  129.9137  131.7485  151.2293 H   0  0  0  0  0  0  0  0  0  0  0  0
  131.7586  128.7809  150.3330 H   0  0  0  0  0  0  0  0  0  0  0  0
  130.8146  130.0510  149.7686 H   0  0  0  0  0  0  0  0  0  0  0  0
  132.3180  128.5152  152.6659 H   0  0  0  0  0  0  0  0  0  0  0  0
  132.1142  129.3778  154.9596 H   0  0  0  0  0  0  0  0  0  0  0  0
  129.5697  132.0863  160.9183 H   0  0  0  0  0  0  0  0  0  0  0  0
  127.1968  131.5955  161.0320 H   0  0  0  0  0  0  0  0  0  0  0  0
  126.9015  132.7096  159.6737 H   0  0  0  0  0  0  0  0  0  0  0  0
  127.6010  133.8384  162.3835 H   0  0  0  0  0  0  0  0  0  0  0  0
  125.9470  133.2590  162.0910 H   0  0  0  0  0  0  0  0  0  0  0  0
  126.0209  135.6073  161.5873 H   0  0  0  0  0  0  0  0  0  0  0  0
  125.8463  134.7114  160.0703 H   0  0  0  0  0  0  0  0  0  0  0  0
  128.4743  135.7898  161.1323 H   0  0  0  0  0  0  0  0  0  0  0  0
  127.4493  136.6157  159.9389 H   0  0  0  0  0  0  0  0  0  0  0  0
  128.9354  135.4799  158.5418 H   0  0  0  0  0  0  0  0  0  0  0  0
  127.6127  134.2919  158.6570 H   0  0  0  0  0  0  0  0  0  0  0  0
  1  2  1  0
  1 32  1  0
  1 33  1  0
  1 34  1  0
  2 30  1  0
  2  3  2  0
  3  4  1  0
  3 35  1  0
  4  5  1  0
  4 36  1  0
  4 37  1  0
  5  6  1  6
  5  7  1  0
  5 30  1  0
  7  8  1  0
  7 23  1  0
  7 38  1  1
  8 39  1  0
  9  8  1  0
  9 21  2  0
  9 10  1  0
 10 11  1  0
 10 12  1  0
 12 13  2  0
 12 40  1  0
 13 14  1  0
 13 21  1  0
 14 20  1  0
 14 15  2  0
 15 16  1  0
 15 41  1  0
 16 17  2  0
 16 42  1  0
 17 18  1  0
 17 19  1  0
 18 43  1  0
 18 44  1  0
 19 20  2  0
 19 45  1  0
 20 46  1  0
 21 22  1  0
 23 29  1  0
 23 24  2  0
 24 25  1  0
 24 47  1  0
 25 26  1  0
 25 48  1  0
 25 49  1  0
 26 27  1  0
 26 50  1  0
 26 51  1  0
 27 28  1  0
 27 52  1  0
 27 53  1  0
 28 29  1  0
 28 54  1  0
 28 55  1  0
 29 56  1  0
 29 57  1  0
 30 31  2  0
M  CHG  1  21   1
M  END
>  <DOCK_score>  (1) 
-56.23922

>  <SMILES>  (1) 
CC1=CC[C@@H](C(Nc2[nH]cc(-c3ccc(N)cc3)[nH+]2)C2=CCCCCC2)C1=O

$$$$
