c1cc(-c2n[nH]cc2C[NH2+]C[C@H]2CC23CC3)oc1NC1CC12CCCCC2
     RDKit          3D

 58 63  0  0  1  0  0  0  0  0999 V2000
  126.2088  134.1649  160.7185 C   0  0  0  0  0  0  0  0  0  0  0  0
  127.1465  133.5191  159.8886 C   0  0  0  0  0  0  0  0  0  0  0  0
  128.3076  134.2185  159.9879 C   0  0  0  0  0  0  0  0  0  0  0  0
  129.5714  133.9013  159.2915 C   0  0  0  0  0  0  0  0  0  0  0  0
  129.7725  132.8891  158.4707 N   0  0  0  0  0  0  0  0  0  0  0  0
  131.0990  132.9483  158.0248 N   0  0  0  0  0  0  0  0  0  0  0  0
  131.5206  132.3282  157.4095 H   0  0  0  0  0  0  0  0  0  0  0  0
  131.6917  134.0146  158.6047 C   0  0  0  0  0  0  0  0  0  0  0  0
  130.7790  134.6239  159.3912 C   0  0  0  0  0  0  0  0  0  0  0  0
  131.0090  135.8568  160.2266 C   0  0  0  0  0  0  0  0  0  0  0  0
  132.3966  136.3095  160.0598 N   0  0  0  0  0  0  0  0  0  0  0  0
  133.0264  135.5795  160.3570 H   0  0  0  0  0  0  0  0  0  0  0  0
  132.5656  136.5249  159.0888 H   0  0  0  0  0  0  0  0  0  0  0  0
  132.6208  137.5112  160.8743 C   0  0  0  0  0  0  0  0  0  0  0  0
  134.0659  137.9828  160.7005 C   0  0  1  0  0  0  0  0  0  0  0  0
  134.8329  137.2659  160.9936 H   0  0  0  0  0  0  0  0  0  0  0  0
  134.3721  138.8993  159.5143 C   0  0  0  0  0  0  0  0  0  0  0  0
  134.3581  139.4662  160.9353 C   0  0  0  0  0  0  0  0  0  0  0  0
  135.2424  140.3332  161.8335 C   0  0  0  0  0  0  0  0  0  0  0  0
  133.7520  140.6490  161.6928 C   0  0  0  0  0  0  0  0  0  0  0  0
  128.1079  135.2530  160.8317 O   0  0  0  0  0  0  0  0  0  0  0  0
  126.8394  135.2290  161.2749 C   0  0  0  0  0  0  0  0  0  0  0  0
  126.2711  136.1384  162.1594 N   0  0  0  0  0  0  0  0  0  0  0  0
  127.0719  137.2466  162.6856 C   0  0  1  0  0  0  0  0  0  0  0  0
  126.3431  138.3248  163.4909 C   0  0  0  0  0  0  0  0  0  0  0  0
  127.2576  137.3260  164.2007 C   0  0  0  0  0  0  0  0  0  0  0  0
  128.6014  137.8387  164.7268 C   0  0  0  0  0  0  0  0  0  0  0  0
  129.5380  136.6456  164.9406 C   0  0  0  0  0  0  0  0  0  0  0  0
  128.8789  135.6446  165.8907 C   0  0  0  0  0  0  0  0  0  0  0  0
  127.5985  135.0959  165.2593 C   0  0  0  0  0  0  0  0  0  0  0  0
  126.5997  136.2392  165.0560 C   0  0  0  0  0  0  0  0  0  0  0  0
  125.1823  133.8699  160.8795 H   0  0  0  0  0  0  0  0  0  0  0  0
  126.9765  132.6354  159.2915 H   0  0  0  0  0  0  0  0  0  0  0  0
  132.7162  134.3257  158.4635 H   0  0  0  0  0  0  0  0  0  0  0  0
  130.3285  136.6455  159.9055 H   0  0  0  0  0  0  0  0  0  0  0  0
  130.8264  135.6242  161.2757 H   0  0  0  0  0  0  0  0  0  0  0  0
  131.9402  138.2999  160.5534 H   0  0  0  0  0  0  0  0  0  0  0  0
  132.4383  137.2785  161.9235 H   0  0  0  0  0  0  0  0  0  0  0  0
  135.3406  138.7857  159.0274 H   0  0  0  0  0  0  0  0  0  0  0  0
  133.5441  139.1661  158.8575 H   0  0  0  0  0  0  0  0  0  0  0  0
  135.5787  139.9016  162.7763 H   0  0  0  0  0  0  0  0  0  0  0  0
  135.9478  141.0065  161.3464 H   0  0  0  0  0  0  0  0  0  0  0  0
  133.4768  141.5302  161.1132 H   0  0  0  0  0  0  0  0  0  0  0  0
  133.1073  140.4253  162.5429 H   0  0  0  0  0  0  0  0  0  0  0  0
  125.3456  136.0368  162.4312 H   0  0  0  0  0  0  0  0  0  0  0  0
  127.9054  137.5634  162.0590 H   0  0  0  0  0  0  0  0  0  0  0  0
  126.6978  139.3511  163.3942 H   0  0  0  0  0  0  0  0  0  0  0  0
  125.2681  138.2100  163.6285 H   0  0  0  0  0  0  0  0  0  0  0  0
  129.0411  138.5222  164.0003 H   0  0  0  0  0  0  0  0  0  0  0  0
  128.4491  138.3575  165.6732 H   0  0  0  0  0  0  0  0  0  0  0  0
  130.4764  136.9931  165.3726 H   0  0  0  0  0  0  0  0  0  0  0  0
  129.7354  136.1623  163.9836 H   0  0  0  0  0  0  0  0  0  0  0  0
  128.6356  136.1424  166.8293 H   0  0  0  0  0  0  0  0  0  0  0  0
  129.5678  134.8227  166.0857 H   0  0  0  0  0  0  0  0  0  0  0  0
  127.1619  134.3447  165.9175 H   0  0  0  0  0  0  0  0  0  0  0  0
  127.8334  134.6429  164.2963 H   0  0  0  0  0  0  0  0  0  0  0  0
  126.3195  136.6558  166.0236 H   0  0  0  0  0  0  0  0  0  0  0  0
  125.7107  135.8639  164.5490 H   0  0  0  0  0  0  0  0  0  0  0  0
  1 22  2  0
  1  2  1  0
  1 32  1  0
  2  3  2  0
  2 33  1  0
  3  4  1  0
  3 21  1  0
  4  9  1  0
  4  5  2  0
  5  6  1  0
  6  7  1  0
  6  8  1  0
  8  9  2  0
  8 34  1  0
  9 10  1  0
 10 11  1  0
 10 35  1  0
 10 36  1  0
 11 12  1  0
 11 13  1  0
 11 14  1  0
 14 15  1  0
 14 37  1  0
 14 38  1  0
 15 16  1  1
 15 18  1  0
 15 17  1  0
 17 18  1  0
 17 39  1  0
 17 40  1  0
 18 20  1  0
 18 19  1  0
 19 20  1  0
 19 41  1  0
 19 42  1  0
 20 43  1  0
 20 44  1  0
 21 22  1  0
 22 23  1  0
 23 24  1  0
 23 45  1  0
 24 26  1  0
 24 25  1  0
 24 46  1  6
 25 26  1  0
 25 47  1  0
 25 48  1  0
 26 31  1  0
 26 27  1  0
 27 28  1  0
 27 49  1  0
 27 50  1  0
 28 29  1  0
 28 51  1  0
 28 52  1  0
 29 30  1  0
 29 53  1  0
 29 54  1  0
 30 31  1  0
 30 55  1  0
 30 56  1  0
 31 57  1  0
 31 58  1  0
M  CHG  1  11   1
M  END
>  <DOCK_score>  (1) 
-44.623821

>  <SMILES>  (1) 
c1cc(-c2n[nH]cc2C[NH2+]C[C@H]2CC23CC3)oc1NC1CC12CCCCC2

$$$$
