OCc1ccc(C[NH+]=C(NCC2=CCCC2)N[C@H]2C[C@@H](O)C2)cc1
     RDKit          3D

 52 54  0  0  1  0  0  0  0  0999 V2000
  135.8008  139.9985  160.8132 O   0  0  0  0  0  0  0  0  0  0  0  0
  134.6146  140.7956  160.7956 C   0  0  0  0  0  0  0  0  0  0  0  0
  133.4066  139.8999  160.8914 C   0  0  0  0  0  0  0  0  0  0  0  0
  132.8170  139.4101  159.7408 C   0  0  0  0  0  0  0  0  0  0  0  0
  131.7091  138.5880  159.8281 C   0  0  0  0  0  0  0  0  0  0  0  0
  131.1911  138.2552  161.0658 C   0  0  0  0  0  0  0  0  0  0  0  0
  129.9835  137.3587  161.1609 C   0  0  0  0  0  0  0  0  0  0  0  0
  130.1464  136.2218  160.2514 N   0  0  0  0  0  0  0  0  0  0  0  0
  130.9474  136.1449  159.7097 H   0  0  0  0  0  0  0  0  0  0  0  0
  129.2149  135.3136  160.1700 C   0  0  0  0  0  0  0  0  0  0  0  0
  129.3677  134.2467  159.3165 N   0  0  0  0  0  0  0  0  0  0  0  0
  130.5774  134.1304  158.4985 C   0  0  0  0  0  0  0  0  0  0  0  0
  130.4970  132.8824  157.6577 C   0  0  0  0  0  0  0  0  0  0  0  0
  130.9350  131.7109  158.0312 C   0  0  0  0  0  0  0  0  0  0  0  0
  130.7014  130.6746  156.9565 C   0  0  0  0  0  0  0  0  0  0  0  0
  130.4176  131.4935  155.6759 C   0  0  0  0  0  0  0  0  0  0  0  0
  129.8928  132.8215  156.2740 C   0  0  0  0  0  0  0  0  0  0  0  0
  128.0796  135.4228  160.9376 N   0  0  0  0  0  0  0  0  0  0  0  0
  127.0326  134.4021  160.8462 C   0  0  1  0  0  0  0  0  0  0  0  0
  127.4234  133.4163  160.5941 H   0  0  0  0  0  0  0  0  0  0  0  0
  126.0721  134.3955  162.0470 C   0  0  0  0  0  0  0  0  0  0  0  0
  124.9383  134.1451  161.0387 C   0  0  1  0  0  0  0  0  0  0  0  0
  124.7557  133.0890  160.8404 H   0  0  0  0  0  0  0  0  0  0  0  0
  123.7419  134.8698  161.3307 O   0  0  0  0  0  0  0  0  0  0  0  0
  125.8316  134.8271  159.9849 C   0  0  0  0  0  0  0  0  0  0  0  0
  131.7775  138.7491  162.2160 C   0  0  0  0  0  0  0  0  0  0  0  0
  132.8880  139.5678  162.1288 C   0  0  0  0  0  0  0  0  0  0  0  0
  135.8585  139.3635  160.0863 H   0  0  0  0  0  0  0  0  0  0  0  0
  134.5729  141.3648  159.8677 H   0  0  0  0  0  0  0  0  0  0  0  0
  134.6260  141.4816  161.6430 H   0  0  0  0  0  0  0  0  0  0  0  0
  133.2220  139.6696  158.7739 H   0  0  0  0  0  0  0  0  0  0  0  0
  131.2485  138.2052  158.9293 H   0  0  0  0  0  0  0  0  0  0  0  0
  129.0913  137.9205  160.8842 H   0  0  0  0  0  0  0  0  0  0  0  0
  129.8811  136.9945  162.1831 H   0  0  0  0  0  0  0  0  0  0  0  0
  128.6744  133.5710  159.2560 H   0  0  0  0  0  0  0  0  0  0  0  0
  130.6618  135.0015  157.8487 H   0  0  0  0  0  0  0  0  0  0  0  0
  131.4512  134.0754  159.1478 H   0  0  0  0  0  0  0  0  0  0  0  0
  131.4032  131.5089  158.9832 H   0  0  0  0  0  0  0  0  0  0  0  0
  131.5904  130.0582  156.8238 H   0  0  0  0  0  0  0  0  0  0  0  0
  129.8429  130.0523  157.2094 H   0  0  0  0  0  0  0  0  0  0  0  0
  131.3308  131.6522  155.1025 H   0  0  0  0  0  0  0  0  0  0  0  0
  129.6528  131.0131  155.0657 H   0  0  0  0  0  0  0  0  0  0  0  0
  128.8046  132.8096  156.3350 H   0  0  0  0  0  0  0  0  0  0  0  0
  130.2311  133.6665  155.6743 H   0  0  0  0  0  0  0  0  0  0  0  0
  127.9717  136.1756  161.5398 H   0  0  0  0  0  0  0  0  0  0  0  0
  126.2371  133.5651  162.7335 H   0  0  0  0  0  0  0  0  0  0  0  0
  126.0016  135.3572  162.5552 H   0  0  0  0  0  0  0  0  0  0  0  0
  123.8562  135.8300  161.3405 H   0  0  0  0  0  0  0  0  0  0  0  0
  125.6944  135.9070  159.9294 H   0  0  0  0  0  0  0  0  0  0  0  0
  125.8025  134.3449  159.0078 H   0  0  0  0  0  0  0  0  0  0  0  0
  131.3702  138.4926  163.1828 H   0  0  0  0  0  0  0  0  0  0  0  0
  133.3488  139.9501  163.0277 H   0  0  0  0  0  0  0  0  0  0  0  0
  1  2  1  0
  1 28  1  0
  2  3  1  0
  2 29  1  0
  2 30  1  0
  3 27  2  0
  3  4  1  0
  4  5  2  0
  4 31  1  0
  5  6  1  0
  5 32  1  0
  6  7  1  0
  6 26  2  0
  7  8  1  0
  7 33  1  0
  7 34  1  0
  8  9  1  0
 10  8  2  0
 10 11  1  0
 10 18  1  0
 11 12  1  0
 11 35  1  0
 12 13  1  0
 12 36  1  0
 12 37  1  0
 13 17  1  0
 13 14  2  0
 14 15  1  0
 14 38  1  0
 15 16  1  0
 15 39  1  0
 15 40  1  0
 16 17  1  0
 16 41  1  0
 16 42  1  0
 17 43  1  0
 17 44  1  0
 18 19  1  0
 18 45  1  0
 19 20  1  6
 19 25  1  0
 19 21  1  0
 21 22  1  0
 21 46  1  0
 21 47  1  0
 22 23  1  6
 22 24  1  0
 22 25  1  0
 24 48  1  0
 25 49  1  0
 25 50  1  0
 26 27  1  0
 26 51  1  0
 27 52  1  0
M  CHG  1   8   1
M  END
>  <DOCK_score>  (1) 
-42.96244

>  <SMILES>  (1) 
OCc1ccc(C[NH+]=C(NCC2=CCCC2)N[C@H]2C[C@@H](O)C2)cc1

$$$$
