Cc1ccc(N)cc1CNC(N[C@H]1C[C@@H](O)C1)=[NH+]Cc1nc(-c2ccccc2)c[nH]1
     RDKit          3D

 59 62  0  0  1  0  0  0  0  0999 V2000
  130.8541  135.7246  165.0667 C   0  0  0  0  0  0  0  0  0  0  0  0
  129.4084  136.0615  164.8062 C   0  0  0  0  0  0  0  0  0  0  0  0
  128.4271  135.6010  165.6652 C   0  0  0  0  0  0  0  0  0  0  0  0
  127.1016  135.9080  165.4295 C   0  0  0  0  0  0  0  0  0  0  0  0
  126.7542  136.6800  164.3279 C   0  0  0  0  0  0  0  0  0  0  0  0
  125.4144  136.9924  164.0865 N   0  0  0  0  0  0  0  0  0  0  0  0
  127.7429  137.1459  163.4708 C   0  0  0  0  0  0  0  0  0  0  0  0
  129.0663  136.8305  163.7093 C   0  0  0  0  0  0  0  0  0  0  0  0
  130.1391  137.3303  162.7764 C   0  0  0  0  0  0  0  0  0  0  0  0
  130.3573  136.3477  161.7120 N   0  0  0  0  0  0  0  0  0  0  0  0
  131.2961  136.5877  160.7366 C   0  0  0  0  0  0  0  0  0  0  0  0
  131.5008  135.6656  159.7378 N   0  0  0  0  0  0  0  0  0  0  0  0
  131.2797  134.2412  159.9992 C   0  0  1  0  0  0  0  0  0  0  0  0
  131.4695  133.9669  161.0370 H   0  0  0  0  0  0  0  0  0  0  0  0
  129.9391  133.7165  159.4585 C   0  0  0  0  0  0  0  0  0  0  0  0
  130.6960  132.4457  159.0378 C   0  0  1  0  0  0  0  0  0  0  0  0
  130.7255  131.6788  159.8118 H   0  0  0  0  0  0  0  0  0  0  0  0
  130.2938  131.9347  157.7653 O   0  0  0  0  0  0  0  0  0  0  0  0
  131.9635  133.3145  158.9801 C   0  0  0  0  0  0  0  0  0  0  0  0
  131.9917  137.6897  160.7590 N   0  0  0  0  0  0  0  0  0  0  0  0
  131.8472  138.3405  161.4638 H   0  0  0  0  0  0  0  0  0  0  0  0
  132.9921  137.9457  159.7198 C   0  0  0  0  0  0  0  0  0  0  0  0
  134.1028  138.7904  160.2889 C   0  0  0  0  0  0  0  0  0  0  0  0
  134.1658  139.2332  161.5133 N   0  0  0  0  0  0  0  0  0  0  0  0
  135.2975  139.9502  161.6675 C   0  0  0  0  0  0  0  0  0  0  0  0
  135.7451  140.6223  162.9122 C   0  0  0  0  0  0  0  0  0  0  0  0
  136.5216  141.7775  162.8430 C   0  0  0  0  0  0  0  0  0  0  0  0
  136.9303  142.4015  164.0041 C   0  0  0  0  0  0  0  0  0  0  0  0
  136.5801  141.8764  165.2348 C   0  0  0  0  0  0  0  0  0  0  0  0
  135.8144  140.7267  165.3096 C   0  0  0  0  0  0  0  0  0  0  0  0
  135.3954  140.0975  164.1550 C   0  0  0  0  0  0  0  0  0  0  0  0
  135.9518  139.9506  160.4768 C   0  0  0  0  0  0  0  0  0  0  0  0
  135.1912  139.2160  159.6107 N   0  0  0  0  0  0  0  0  0  0  0  0
  135.3953  139.0335  158.6802 H   0  0  0  0  0  0  0  0  0  0  0  0
  131.2989  136.4950  165.6965 H   0  0  0  0  0  0  0  0  0  0  0  0
  130.9171  134.7609  165.5721 H   0  0  0  0  0  0  0  0  0  0  0  0
  131.3918  135.6742  164.1199 H   0  0  0  0  0  0  0  0  0  0  0  0
  128.6978  135.0006  166.5211 H   0  0  0  0  0  0  0  0  0  0  0  0
  126.3358  135.5484  166.1009 H   0  0  0  0  0  0  0  0  0  0  0  0
  124.7252  136.6700  164.6883 H   0  0  0  0  0  0  0  0  0  0  0  0
  125.1731  137.5314  163.3171 H   0  0  0  0  0  0  0  0  0  0  0  0
  127.4766  137.7503  162.6163 H   0  0  0  0  0  0  0  0  0  0  0  0
  131.0653  137.4754  163.3324 H   0  0  0  0  0  0  0  0  0  0  0  0
  129.8264  138.2778  162.3376 H   0  0  0  0  0  0  0  0  0  0  0  0
  129.8394  135.5277  161.6953 H   0  0  0  0  0  0  0  0  0  0  0  0
  131.7918  135.9581  158.8599 H   0  0  0  0  0  0  0  0  0  0  0  0
  129.1931  133.5438  160.2342 H   0  0  0  0  0  0  0  0  0  0  0  0
  129.5510  134.2933  158.6190 H   0  0  0  0  0  0  0  0  0  0  0  0
  130.4243  132.5536  157.0339 H   0  0  0  0  0  0  0  0  0  0  0  0
  132.1298  133.7805  158.0089 H   0  0  0  0  0  0  0  0  0  0  0  0
  132.8519  132.8172  159.3697 H   0  0  0  0  0  0  0  0  0  0  0  0
  132.5250  138.4724  158.8876 H   0  0  0  0  0  0  0  0  0  0  0  0
  133.4002  136.9985  159.3670 H   0  0  0  0  0  0  0  0  0  0  0  0
  136.7995  142.1857  161.8826 H   0  0  0  0  0  0  0  0  0  0  0  0
  137.5284  143.2993  163.9516 H   0  0  0  0  0  0  0  0  0  0  0  0
  136.9058  142.3659  166.1407 H   0  0  0  0  0  0  0  0  0  0  0  0
  135.5438  140.3210  166.2732 H   0  0  0  0  0  0  0  0  0  0  0  0
  134.7973  139.2001  164.2143 H   0  0  0  0  0  0  0  0  0  0  0  0
  136.8905  140.4373  160.2570 H   0  0  0  0  0  0  0  0  0  0  0  0
  1  2  1  0
  1 35  1  0
  1 36  1  0
  1 37  1  0
  2  8  2  0
  2  3  1  0
  3  4  2  0
  3 38  1  0
  4  5  1  0
  4 39  1  0
  5  6  1  0
  5  7  2  0
  6 40  1  0
  6 41  1  0
  7  8  1  0
  7 42  1  0
  8  9  1  0
  9 10  1  0
  9 43  1  0
  9 44  1  0
 10 45  1  0
 11 10  1  0
 11 12  1  0
 11 20  2  0
 12 13  1  0
 12 46  1  0
 13 14  1  1
 13 19  1  0
 13 15  1  0
 15 16  1  0
 15 47  1  0
 15 48  1  0
 16 17  1  1
 16 18  1  0
 16 19  1  0
 18 49  1  0
 19 50  1  0
 19 51  1  0
 20 21  1  0
 20 22  1  0
 22 23  1  0
 22 52  1  0
 22 53  1  0
 23 33  1  0
 23 24  2  0
 24 25  1  0
 25 26  1  0
 25 32  2  0
 26 31  1  0
 26 27  2  0
 27 28  1  0
 27 54  1  0
 28 29  2  0
 28 55  1  0
 29 30  1  0
 29 56  1  0
 30 31  2  0
 30 57  1  0
 31 58  1  0
 32 33  1  0
 32 59  1  0
 33 34  1  0
M  CHG  1  20   1
M  END
>  <DOCK_score>  (1) 
-43.489754

>  <SMILES>  (1) 
Cc1ccc(N)cc1CNC(N[C@H]1C[C@@H](O)C1)=[NH+]Cc1nc(-c2ccccc2)c[nH]1

$$$$
