CCc1ccc(-c2c[nH]c(N[C@H](CCC#N)C(c3ccccc3)c3ccccc3)[nH+]2)cc1
     RDKit          3D

 61 64  0  0  1  0  0  0  0  0999 V2000
  129.6286  129.4422  151.8487 C   0  0  0  0  0  0  0  0  0  0  0  0
  130.8589  130.2619  152.2422 C   0  0  0  0  0  0  0  0  0  0  0  0
  130.5884  130.9836  153.5373 C   0  0  0  0  0  0  0  0  0  0  0  0
  130.8945  130.3762  154.7412 C   0  0  0  0  0  0  0  0  0  0  0  0
  130.6542  131.0346  155.9302 C   0  0  0  0  0  0  0  0  0  0  0  0
  130.0916  132.3096  155.9163 C   0  0  0  0  0  0  0  0  0  0  0  0
  129.8259  133.0201  157.1910 C   0  0  0  0  0  0  0  0  0  0  0  0
  129.0182  132.5893  158.1915 C   0  0  0  0  0  0  0  0  0  0  0  0
  129.0596  133.5454  159.1770 N   0  0  0  0  0  0  0  0  0  0  0  0
  128.5830  133.5211  160.0214 H   0  0  0  0  0  0  0  0  0  0  0  0
  129.8922  134.5335  158.7494 C   0  0  0  0  0  0  0  0  0  0  0  0
  130.2056  135.6842  159.4524 N   0  0  0  0  0  0  0  0  0  0  0  0
  130.2143  135.6682  160.9173 C   0  0  2  0  0  0  0  0  0  0  0  0
  129.3752  135.0741  161.2792 H   0  0  0  0  0  0  0  0  0  0  0  0
  130.0902  137.0995  161.4436 C   0  0  0  0  0  0  0  0  0  0  0  0
  128.7793  137.7132  160.9480 C   0  0  0  0  0  0  0  0  0  0  0  0
  127.6461  136.9108  161.4368 C   0  0  0  0  0  0  0  0  0  0  0  0
  126.7717  136.2915  161.8140 N   0  0  0  0  0  0  0  0  0  0  0  0
  131.5252  135.0544  161.4129 C   0  0  0  0  0  0  0  0  0  0  0  0
  131.5341  135.0380  162.9197 C   0  0  0  0  0  0  0  0  0  0  0  0
  132.7311  135.1303  163.6049 C   0  0  0  0  0  0  0  0  0  0  0  0
  132.7389  135.1201  164.9872 C   0  0  0  0  0  0  0  0  0  0  0  0
  131.5505  135.0076  165.6842 C   0  0  0  0  0  0  0  0  0  0  0  0
  130.3540  134.9095  164.9991 C   0  0  0  0  0  0  0  0  0  0  0  0
  130.3457  134.9250  163.6168 C   0  0  0  0  0  0  0  0  0  0  0  0
  131.6474  133.6447  160.8944 C   0  0  0  0  0  0  0  0  0  0  0  0
  131.1487  132.5900  161.6357 C   0  0  0  0  0  0  0  0  0  0  0  0
  131.2564  131.2973  161.1580 C   0  0  0  0  0  0  0  0  0  0  0  0
  131.8721  131.0585  159.9435 C   0  0  0  0  0  0  0  0  0  0  0  0
  132.3760  132.1127  159.2047 C   0  0  0  0  0  0  0  0  0  0  0  0
  132.2635  133.4058  159.6801 C   0  0  0  0  0  0  0  0  0  0  0  0
  130.3527  134.2132  157.5648 N   0  0  0  0  0  0  0  0  0  0  0  0
  130.9697  134.7455  157.0385 H   0  0  0  0  0  0  0  0  0  0  0  0
  129.7799  132.9150  154.7001 C   0  0  0  0  0  0  0  0  0  0  0  0
  130.0298  132.2495  153.5172 C   0  0  0  0  0  0  0  0  0  0  0  0
  129.8241  128.9204  150.9119 H   0  0  0  0  0  0  0  0  0  0  0  0
  129.4114  128.7152  152.6311 H   0  0  0  0  0  0  0  0  0  0  0  0
  128.7738  130.1068  151.7228 H   0  0  0  0  0  0  0  0  0  0  0  0
  131.7135  129.5981  152.3677 H   0  0  0  0  0  0  0  0  0  0  0  0
  131.0759  130.9896  151.4593 H   0  0  0  0  0  0  0  0  0  0  0  0
  131.3259  129.3862  154.7510 H   0  0  0  0  0  0  0  0  0  0  0  0
  130.8980  130.5610  156.8698 H   0  0  0  0  0  0  0  0  0  0  0  0
  128.4509  131.6705  158.2098 H   0  0  0  0  0  0  0  0  0  0  0  0
  130.4196  136.5010  158.9750 H   0  0  0  0  0  0  0  0  0  0  0  0
  130.0968  137.0876  162.5336 H   0  0  0  0  0  0  0  0  0  0  0  0
  130.9293  137.6937  161.0816 H   0  0  0  0  0  0  0  0  0  0  0  0
  128.6908  138.7329  161.3229 H   0  0  0  0  0  0  0  0  0  0  0  0
  128.7727  137.7249  159.8581 H   0  0  0  0  0  0  0  0  0  0  0  0
  132.3643  135.6487  161.0510 H   0  0  0  0  0  0  0  0  0  0  0  0
  133.6601  135.2141  163.0603 H   0  0  0  0  0  0  0  0  0  0  0  0
  133.6737  135.1964  165.5226 H   0  0  0  0  0  0  0  0  0  0  0  0
  131.5569  134.9958  166.7642 H   0  0  0  0  0  0  0  0  0  0  0  0
  129.4254  134.8212  165.5436 H   0  0  0  0  0  0  0  0  0  0  0  0
  129.4109  134.8483  163.0815 H   0  0  0  0  0  0  0  0  0  0  0  0
  130.6712  132.7762  162.5864 H   0  0  0  0  0  0  0  0  0  0  0  0
  130.8631  130.4736  161.7351 H   0  0  0  0  0  0  0  0  0  0  0  0
  131.9596  130.0481  159.5719 H   0  0  0  0  0  0  0  0  0  0  0  0
  132.8572  131.9260  158.2561 H   0  0  0  0  0  0  0  0  0  0  0  0
  132.6572  134.2294  159.1031 H   0  0  0  0  0  0  0  0  0  0  0  0
  129.3434  133.9026  154.6834 H   0  0  0  0  0  0  0  0  0  0  0  0
  129.7883  132.7173  152.5742 H   0  0  0  0  0  0  0  0  0  0  0  0
  1  2  1  0
  1 36  1  0
  1 37  1  0
  1 38  1  0
  2  3  1  0
  2 39  1  0
  2 40  1  0
  3 35  2  0
  3  4  1  0
  4  5  2  0
  4 41  1  0
  5  6  1  0
  5 42  1  0
  6  7  1  0
  6 34  2  0
  7 32  1  0
  7  8  2  0
  8  9  1  0
  8 43  1  0
  9 10  1  0
  9 11  1  0
 11 12  1  0
 11 32  2  0
 12 13  1  0
 12 44  1  0
 13 14  1  1
 13 15  1  0
 13 19  1  0
 15 16  1  0
 15 45  1  0
 15 46  1  0
 16 17  1  0
 16 47  1  0
 16 48  1  0
 17 18  3  0
 19 20  1  0
 19 26  1  0
 19 49  1  0
 20 25  1  0
 20 21  2  0
 21 22  1  0
 21 50  1  0
 22 23  2  0
 22 51  1  0
 23 24  1  0
 23 52  1  0
 24 25  2  0
 24 53  1  0
 25 54  1  0
 26 31  1  0
 26 27  2  0
 27 28  1  0
 27 55  1  0
 28 29  2  0
 28 56  1  0
 29 30  1  0
 29 57  1  0
 30 31  2  0
 30 58  1  0
 31 59  1  0
 32 33  1  0
 34 35  1  0
 34 60  1  0
 35 61  1  0
M  CHG  1  32   1
M  END
>  <DOCK_score>  (1) 
-53.412743

>  <SMILES>  (1) 
CCc1ccc(-c2c[nH]c(N[C@H](CCC#N)C(c3ccccc3)c3ccccc3)[nH+]2)cc1

$$$$
