[NH3+][C@@H](C(=O)Nc1cccc(O)c1)c1cccc(Oc2cccc(O)c2)c1
     RDKit          3D

 45 47  0  0  1  0  0  0  0  0999 V2000
  130.6504  134.0896  157.3810 N   0  0  0  0  0  0  0  0  0  0  0  0
  130.7552  133.0890  157.4573 H   0  0  0  0  0  0  0  0  0  0  0  0
  130.0341  134.3055  156.6118 H   0  0  0  0  0  0  0  0  0  0  0  0
  131.5526  134.5109  157.2176 H   0  0  0  0  0  0  0  0  0  0  0  0
  130.0814  134.6188  158.6277 C   0  0  1  0  0  0  0  0  0  0  0  0
  129.9682  135.6997  158.5453 H   0  0  0  0  0  0  0  0  0  0  0  0
  128.7339  133.9896  158.8717 C   0  0  0  0  0  0  0  0  0  0  0  0
  128.2912  133.1801  158.0846 O   0  0  0  0  0  0  0  0  0  0  0  0
  128.0208  134.3265  159.9647 N   0  0  0  0  0  0  0  0  0  0  0  0
  126.7698  133.7424  160.1912 C   0  0  0  0  0  0  0  0  0  0  0  0
  126.5098  132.4561  159.7349 C   0  0  0  0  0  0  0  0  0  0  0  0
  125.2748  131.8796  159.9586 C   0  0  0  0  0  0  0  0  0  0  0  0
  124.2970  132.5775  160.6422 C   0  0  0  0  0  0  0  0  0  0  0  0
  124.5492  133.8646  161.0953 C   0  0  0  0  0  0  0  0  0  0  0  0
  123.5848  134.5518  161.7621 O   0  0  0  0  0  0  0  0  0  0  0  0
  125.7874  134.4468  160.8724 C   0  0  0  0  0  0  0  0  0  0  0  0
  131.0018  134.2962  159.7766 C   0  0  0  0  0  0  0  0  0  0  0  0
  130.8440  133.1146  160.4774 C   0  0  0  0  0  0  0  0  0  0  0  0
  131.6903  132.8131  161.5283 C   0  0  0  0  0  0  0  0  0  0  0  0
  132.6890  133.6973  161.8880 C   0  0  0  0  0  0  0  0  0  0  0  0
  132.8460  134.8860  161.1902 C   0  0  0  0  0  0  0  0  0  0  0  0
  133.8277  135.7571  161.5417 O   0  0  0  0  0  0  0  0  0  0  0  0
  133.9991  136.0260  162.8626 C   0  0  0  0  0  0  0  0  0  0  0  0
  132.8981  136.2862  163.6672 C   0  0  0  0  0  0  0  0  0  0  0  0
  133.0714  136.5544  165.0112 C   0  0  0  0  0  0  0  0  0  0  0  0
  134.3414  136.5757  165.5559 C   0  0  0  0  0  0  0  0  0  0  0  0
  135.4455  136.3216  164.7548 C   0  0  0  0  0  0  0  0  0  0  0  0
  136.6941  136.3429  165.2910 O   0  0  0  0  0  0  0  0  0  0  0  0
  135.2740  136.0466  163.4068 C   0  0  0  0  0  0  0  0  0  0  0  0
  131.9987  135.1837  160.1322 C   0  0  0  0  0  0  0  0  0  0  0  0
  128.3749  134.9739  160.5942 H   0  0  0  0  0  0  0  0  0  0  0  0
  127.2738  131.9069  159.2047 H   0  0  0  0  0  0  0  0  0  0  0  0
  125.0743  130.8798  159.6029 H   0  0  0  0  0  0  0  0  0  0  0  0
  123.3340  132.1221  160.8202 H   0  0  0  0  0  0  0  0  0  0  0  0
  123.8535  135.4390  162.0377 H   0  0  0  0  0  0  0  0  0  0  0  0
  125.9868  135.4469  161.2278 H   0  0  0  0  0  0  0  0  0  0  0  0
  130.0609  132.4242  160.2008 H   0  0  0  0  0  0  0  0  0  0  0  0
  131.5677  131.8876  162.0712 H   0  0  0  0  0  0  0  0  0  0  0  0
  133.3469  133.4634  162.7121 H   0  0  0  0  0  0  0  0  0  0  0  0
  131.9050  136.2745  163.2429 H   0  0  0  0  0  0  0  0  0  0  0  0
  132.2133  136.7525  165.6364 H   0  0  0  0  0  0  0  0  0  0  0  0
  134.4745  136.7902  166.6060 H   0  0  0  0  0  0  0  0  0  0  0  0
  136.7126  136.5440  166.2367 H   0  0  0  0  0  0  0  0  0  0  0  0
  136.1322  135.8482  162.7817 H   0  0  0  0  0  0  0  0  0  0  0  0
  132.1185  136.1084  159.5875 H   0  0  0  0  0  0  0  0  0  0  0  0
  1  2  1  0
  1  3  1  0
  1  4  1  0
  1  5  1  0
  5  6  1  6
  5  7  1  0
  5 17  1  0
  7  8  2  0
  7  9  1  0
  9 10  1  0
  9 31  1  0
 10 16  1  0
 10 11  2  0
 11 12  1  0
 11 32  1  0
 12 13  2  0
 12 33  1  0
 13 14  1  0
 13 34  1  0
 14 15  1  0
 14 16  2  0
 15 35  1  0
 16 36  1  0
 17 30  1  0
 17 18  2  0
 18 19  1  0
 18 37  1  0
 19 20  2  0
 19 38  1  0
 20 21  1  0
 20 39  1  0
 21 22  1  0
 21 30  2  0
 22 23  1  0
 23 29  1  0
 23 24  2  0
 24 25  1  0
 24 40  1  0
 25 26  2  0
 25 41  1  0
 26 27  1  0
 26 42  1  0
 27 28  1  0
 27 29  2  0
 28 43  1  0
 29 44  1  0
 30 45  1  0
M  CHG  1   1   1
M  END
>  <DOCK_score>  (1) 
-41.986794

>  <SMILES>  (1) 
[NH3+][C@@H](C(=O)Nc1cccc(O)c1)c1cccc(Oc2cccc(O)c2)c1

$$$$
