c1ccc(-c2ccc(-c3c[nH]c(N[C@@H](CC4CC4)c4ccccc4)[nH+]3)cc2)cc1
     RDKit          3D

 55 59  0  0  1  0  0  0  0  0999 V2000
  130.3543  128.8059  150.4398 C   0  0  0  0  0  0  0  0  0  0  0  0
  130.2703  130.1864  150.4659 C   0  0  0  0  0  0  0  0  0  0  0  0
  130.3499  130.8626  151.6664 C   0  0  0  0  0  0  0  0  0  0  0  0
  130.5145  130.1508  152.8544 C   0  0  0  0  0  0  0  0  0  0  0  0
  130.6013  130.8723  154.1473 C   0  0  0  0  0  0  0  0  0  0  0  0
  129.9305  132.0835  154.3166 C   0  0  0  0  0  0  0  0  0  0  0  0
  130.0114  132.7534  155.5172 C   0  0  0  0  0  0  0  0  0  0  0  0
  130.7638  132.2204  156.5640 C   0  0  0  0  0  0  0  0  0  0  0  0
  130.8508  132.9413  157.8565 C   0  0  0  0  0  0  0  0  0  0  0  0
  130.4557  132.4658  159.0642 C   0  0  0  0  0  0  0  0  0  0  0  0
  130.7146  133.4517  159.9846 N   0  0  0  0  0  0  0  0  0  0  0  0
  130.5403  133.4078  160.9378 H   0  0  0  0  0  0  0  0  0  0  0  0
  131.2606  134.5019  159.3126 C   0  0  0  0  0  0  0  0  0  0  0  0
  131.6657  135.6983  159.8787 N   0  0  0  0  0  0  0  0  0  0  0  0
  131.5201  135.9129  161.3205 C   0  0  1  0  0  0  0  0  0  0  0  0
  132.0935  135.1590  161.8599 H   0  0  0  0  0  0  0  0  0  0  0  0
  132.0397  137.3054  161.6840 C   0  0  0  0  0  0  0  0  0  0  0  0
  131.8876  137.5294  163.1898 C   0  0  0  0  0  0  0  0  0  0  0  0
  130.5849  138.1634  163.6817 C   0  0  0  0  0  0  0  0  0  0  0  0
  131.8820  138.9747  163.6920 C   0  0  0  0  0  0  0  0  0  0  0  0
  130.0658  135.8046  161.7003 C   0  0  0  0  0  0  0  0  0  0  0  0
  129.7115  135.3500  162.9567 C   0  0  0  0  0  0  0  0  0  0  0  0
  128.3776  135.2548  163.3066 C   0  0  0  0  0  0  0  0  0  0  0  0
  127.3976  135.6058  162.3968 C   0  0  0  0  0  0  0  0  0  0  0  0
  127.7518  136.0554  161.1385 C   0  0  0  0  0  0  0  0  0  0  0  0
  129.0859  136.1547  160.7902 C   0  0  0  0  0  0  0  0  0  0  0  0
  131.3403  134.1933  158.0413 N   0  0  0  0  0  0  0  0  0  0  0  0
  131.6931  134.7680  157.3441 H   0  0  0  0  0  0  0  0  0  0  0  0
  131.4390  131.0118  156.3925 C   0  0  0  0  0  0  0  0  0  0  0  0
  131.3540  130.3397  155.1933 C   0  0  0  0  0  0  0  0  0  0  0  0
  130.6034  128.7611  152.8210 C   0  0  0  0  0  0  0  0  0  0  0  0
  130.5177  128.0952  151.6153 C   0  0  0  0  0  0  0  0  0  0  0  0
  130.2920  128.2813  149.4978 H   0  0  0  0  0  0  0  0  0  0  0  0
  130.1427  130.7361  149.5452 H   0  0  0  0  0  0  0  0  0  0  0  0
  130.2851  131.9405  151.6856 H   0  0  0  0  0  0  0  0  0  0  0  0
  129.3480  132.4961  153.5061 H   0  0  0  0  0  0  0  0  0  0  0  0
  129.4919  133.6911  155.6485 H   0  0  0  0  0  0  0  0  0  0  0  0
  130.0247  131.4959  159.2642 H   0  0  0  0  0  0  0  0  0  0  0  0
  132.0460  136.3948  159.3207 H   0  0  0  0  0  0  0  0  0  0  0  0
  133.0917  137.3837  161.4094 H   0  0  0  0  0  0  0  0  0  0  0  0
  131.4663  138.0594  161.1448 H   0  0  0  0  0  0  0  0  0  0  0  0
  132.3533  136.7773  163.8266 H   0  0  0  0  0  0  0  0  0  0  0  0
  129.8361  138.4209  162.9325 H   0  0  0  0  0  0  0  0  0  0  0  0
  130.1932  137.8282  164.6420 H   0  0  0  0  0  0  0  0  0  0  0  0
  132.3437  139.1733  164.6592 H   0  0  0  0  0  0  0  0  0  0  0  0
  131.9870  139.7658  162.9496 H   0  0  0  0  0  0  0  0  0  0  0  0
  130.4771  135.0723  163.6662 H   0  0  0  0  0  0  0  0  0  0  0  0
  128.1008  134.9039  164.2897 H   0  0  0  0  0  0  0  0  0  0  0  0
  126.3554  135.5288  162.6693 H   0  0  0  0  0  0  0  0  0  0  0  0
  126.9862  136.3296  160.4278 H   0  0  0  0  0  0  0  0  0  0  0  0
  129.3626  136.5061  159.8072 H   0  0  0  0  0  0  0  0  0  0  0  0
  132.0254  130.6014  157.2012 H   0  0  0  0  0  0  0  0  0  0  0  0
  131.8736  129.4022  155.0617 H   0  0  0  0  0  0  0  0  0  0  0  0
  130.7355  128.2055  153.7377 H   0  0  0  0  0  0  0  0  0  0  0  0
  130.5826  127.0175  151.5889 H   0  0  0  0  0  0  0  0  0  0  0  0
  1 32  2  0
  1  2  1  0
  1 33  1  0
  2  3  2  0
  2 34  1  0
  3  4  1  0
  3 35  1  0
  4  5  1  0
  4 31  2  0
  5 30  1  0
  5  6  2  0
  6  7  1  0
  6 36  1  0
  7  8  2  0
  7 37  1  0
  8  9  1  0
  8 29  1  0
  9 27  1  0
  9 10  2  0
 10 11  1  0
 10 38  1  0
 11 12  1  0
 11 13  1  0
 13 14  1  0
 13 27  2  0
 14 15  1  0
 14 39  1  0
 15 16  1  1
 15 17  1  0
 15 21  1  0
 17 18  1  0
 17 40  1  0
 17 41  1  0
 18 20  1  0
 18 19  1  0
 18 42  1  0
 19 20  1  0
 19 43  1  0
 19 44  1  0
 20 45  1  0
 20 46  1  0
 21 26  1  0
 21 22  2  0
 22 23  1  0
 22 47  1  0
 23 24  2  0
 23 48  1  0
 24 25  1  0
 24 49  1  0
 25 26  2  0
 25 50  1  0
 26 51  1  0
 27 28  1  0
 29 30  2  0
 29 52  1  0
 30 53  1  0
 31 32  1  0
 31 54  1  0
 32 55  1  0
M  CHG  1  27   1
M  END
>  <DOCK_score>  (1) 
-57.852219

>  <SMILES>  (1) 
c1ccc(-c2ccc(-c3c[nH]c(N[C@@H](CC4CC4)c4ccccc4)[nH+]3)cc2)cc1

$$$$
