Oc1cc(O)cc(CNC2=C[C@H]([NH2+]Cc3cccc(O)c3)CCC2)c1
     RDKit          3D

 50 52  0  0  1  0  0  0  0  0999 V2000
  136.7560  140.5494  161.1235 O   0  0  0  0  0  0  0  0  0  0  0  0
  135.6517  139.8603  160.7330 C   0  0  0  0  0  0  0  0  0  0  0  0
  135.5473  139.3983  159.4304 C   0  0  0  0  0  0  0  0  0  0  0  0
  134.4191  138.6958  159.0346 C   0  0  0  0  0  0  0  0  0  0  0  0
  134.3138  138.2415  157.7582 O   0  0  0  0  0  0  0  0  0  0  0  0
  133.3980  138.4566  159.9434 C   0  0  0  0  0  0  0  0  0  0  0  0
  133.5047  138.9182  161.2415 C   0  0  0  0  0  0  0  0  0  0  0  0
  132.3940  138.6575  162.2261 C   0  0  0  0  0  0  0  0  0  0  0  0
  131.3249  137.9028  161.5676 N   0  0  0  0  0  0  0  0  0  0  0  0
  131.4481  136.5298  161.3959 C   0  0  0  0  0  0  0  0  0  0  0  0
  130.4730  135.8958  160.8046 C   0  0  0  0  0  0  0  0  0  0  0  0
  130.4740  134.4188  160.5379 C   0  0  2  0  0  0  0  0  0  0  0  0
  130.7068  134.2398  159.4883 H   0  0  0  0  0  0  0  0  0  0  0  0
  129.1452  133.8713  160.8423 N   0  0  0  0  0  0  0  0  0  0  0  0
  129.2168  132.8750  160.9860 H   0  0  0  0  0  0  0  0  0  0  0  0
  128.7854  134.3067  161.6782 H   0  0  0  0  0  0  0  0  0  0  0  0
  128.2361  134.1400  159.7200 C   0  0  0  0  0  0  0  0  0  0  0  0
  126.8730  133.5783  160.0322 C   0  0  0  0  0  0  0  0  0  0  0  0
  126.5599  132.2820  159.6669 C   0  0  0  0  0  0  0  0  0  0  0  0
  125.3119  131.7622  159.9561 C   0  0  0  0  0  0  0  0  0  0  0  0
  124.3707  132.5407  160.6017 C   0  0  0  0  0  0  0  0  0  0  0  0
  124.6806  133.8431  160.9645 C   0  0  0  0  0  0  0  0  0  0  0  0
  123.7567  134.6109  161.6002 O   0  0  0  0  0  0  0  0  0  0  0  0
  125.9356  134.3607  160.6779 C   0  0  0  0  0  0  0  0  0  0  0  0
  131.5204  133.7272  161.4145 C   0  0  0  0  0  0  0  0  0  0  0  0
  132.8486  134.4809  161.2717 C   0  0  0  0  0  0  0  0  0  0  0  0
  132.6921  135.8638  161.9072 C   0  0  0  0  0  0  0  0  0  0  0  0
  134.6276  139.6189  161.6379 C   0  0  0  0  0  0  0  0  0  0  0  0
  136.7375  140.8303  162.0486 H   0  0  0  0  0  0  0  0  0  0  0  0
  136.3432  139.5849  158.7245 H   0  0  0  0  0  0  0  0  0  0  0  0
  133.4927  137.7637  157.5772 H   0  0  0  0  0  0  0  0  0  0  0  0
  132.5214  137.9053  159.6371 H   0  0  0  0  0  0  0  0  0  0  0  0
  132.7813  138.0811  163.0662 H   0  0  0  0  0  0  0  0  0  0  0  0
  131.9990  139.6066  162.5880 H   0  0  0  0  0  0  0  0  0  0  0  0
  130.5309  138.3618  161.2516 H   0  0  0  0  0  0  0  0  0  0  0  0
  129.6153  136.4688  160.4846 H   0  0  0  0  0  0  0  0  0  0  0  0
  128.1589  135.2161  159.5648 H   0  0  0  0  0  0  0  0  0  0  0  0
  128.6249  133.6696  158.8168 H   0  0  0  0  0  0  0  0  0  0  0  0
  127.2928  131.6732  159.1584 H   0  0  0  0  0  0  0  0  0  0  0  0
  125.0710  130.7480  159.6734 H   0  0  0  0  0  0  0  0  0  0  0  0
  123.3946  132.1354  160.8242 H   0  0  0  0  0  0  0  0  0  0  0  0
  124.0649  135.5027  161.8120 H   0  0  0  0  0  0  0  0  0  0  0  0
  126.1795  135.3745  160.9597 H   0  0  0  0  0  0  0  0  0  0  0  0
  131.6478  132.6953  161.0876 H   0  0  0  0  0  0  0  0  0  0  0  0
  131.1995  133.7446  162.4561 H   0  0  0  0  0  0  0  0  0  0  0  0
  133.0969  134.5888  160.2159 H   0  0  0  0  0  0  0  0  0  0  0  0
  133.6413  133.9317  161.7799 H   0  0  0  0  0  0  0  0  0  0  0  0
  133.5586  136.4765  161.6575 H   0  0  0  0  0  0  0  0  0  0  0  0
  132.6256  135.7564  162.9898 H   0  0  0  0  0  0  0  0  0  0  0  0
  134.7086  139.9787  162.6530 H   0  0  0  0  0  0  0  0  0  0  0  0
  1  2  1  0
  1 29  1  0
  2 28  2  0
  2  3  1  0
  3  4  2  0
  3 30  1  0
  4  5  1  0
  4  6  1  0
  5 31  1  0
  6  7  2  0
  6 32  1  0
  7  8  1  0
  7 28  1  0
  8  9  1  0
  8 33  1  0
  8 34  1  0
  9 10  1  0
  9 35  1  0
 10 27  1  0
 10 11  2  0
 11 12  1  0
 11 36  1  0
 12 13  1  6
 12 14  1  0
 12 25  1  0
 14 15  1  0
 14 16  1  0
 14 17  1  0
 17 18  1  0
 17 37  1  0
 17 38  1  0
 18 24  1  0
 18 19  2  0
 19 20  1  0
 19 39  1  0
 20 21  2  0
 20 40  1  0
 21 22  1  0
 21 41  1  0
 22 23  1  0
 22 24  2  0
 23 42  1  0
 24 43  1  0
 25 26  1  0
 25 44  1  0
 25 45  1  0
 26 27  1  0
 26 46  1  0
 26 47  1  0
 27 48  1  0
 27 49  1  0
 28 50  1  0
M  CHG  1  14   1
M  END
>  <DOCK_score>  (1) 
-41.641346

>  <SMILES>  (1) 
Oc1cc(O)cc(CNC2=C[C@H]([NH2+]Cc3cccc(O)c3)CCC2)c1

$$$$
