O=C1CC[C@H]([NH2+]Cc2c[nH]nc2-c2ccc(NC3CCC(c4ccccc4)CC3)o2)CN1
     RDKit          3D

 64 68  0  0  1  0  0  0  0  0999 V2000
  134.4115  140.7115  162.7338 O   0  0  0  0  0  0  0  0  0  0  0  0
  134.0001  139.7254  162.1601 C   0  0  0  0  0  0  0  0  0  0  0  0
  133.1214  138.7749  162.9217 C   0  0  0  0  0  0  0  0  0  0  0  0
  133.0705  137.4240  162.2038 C   0  0  0  0  0  0  0  0  0  0  0  0
  132.7699  137.6741  160.7210 C   0  0  2  0  0  0  0  0  0  0  0  0
  131.8821  138.2996  160.6283 H   0  0  0  0  0  0  0  0  0  0  0  0
  132.5427  136.3919  160.0411 N   0  0  0  0  0  0  0  0  0  0  0  0
  133.1990  135.7074  160.3858 H   0  0  0  0  0  0  0  0  0  0  0  0
  132.6714  136.5107  159.0474 H   0  0  0  0  0  0  0  0  0  0  0  0
  131.1725  135.9332  160.3060 C   0  0  0  0  0  0  0  0  0  0  0  0
  130.9394  134.6179  159.6085 C   0  0  0  0  0  0  0  0  0  0  0  0
  131.8372  133.9471  158.8554 C   0  0  0  0  0  0  0  0  0  0  0  0
  131.2455  132.8201  158.4036 N   0  0  0  0  0  0  0  0  0  0  0  0
  131.6565  132.1505  157.8348 H   0  0  0  0  0  0  0  0  0  0  0  0
  129.9353  132.7861  158.8977 N   0  0  0  0  0  0  0  0  0  0  0  0
  129.7453  133.8669  159.6286 C   0  0  0  0  0  0  0  0  0  0  0  0
  128.5009  134.2301  160.3375 C   0  0  0  0  0  0  0  0  0  0  0  0
  127.3525  133.5034  160.3532 C   0  0  0  0  0  0  0  0  0  0  0  0
  126.4313  134.2132  161.1487 C   0  0  0  0  0  0  0  0  0  0  0  0
  127.0585  135.3392  161.5712 C   0  0  0  0  0  0  0  0  0  0  0  0
  126.5029  136.3228  162.3812 N   0  0  0  0  0  0  0  0  0  0  0  0
  127.2979  137.4927  162.7629 C   0  0  2  0  0  0  0  0  0  0  0  0
  128.5387  137.0369  163.5333 C   0  0  0  0  0  0  0  0  0  0  0  0
  128.1084  136.2801  164.7915 C   0  0  0  0  0  0  0  0  0  0  0  0
  127.2673  137.2010  165.6779 C   0  0  2  0  0  0  0  0  0  0  0  0
  126.8434  136.4557  166.9171 C   0  0  0  0  0  0  0  0  0  0  0  0
  125.6543  135.7510  166.9271 C   0  0  0  0  0  0  0  0  0  0  0  0
  125.2682  135.0627  168.0620 C   0  0  0  0  0  0  0  0  0  0  0  0
  126.0686  135.0834  169.1888 C   0  0  0  0  0  0  0  0  0  0  0  0
  127.2553  135.7925  169.1806 C   0  0  0  0  0  0  0  0  0  0  0  0
  127.6413  136.4809  168.0457 C   0  0  0  0  0  0  0  0  0  0  0  0
  126.0266  137.6568  164.9074 C   0  0  0  0  0  0  0  0  0  0  0  0
  126.4569  138.4136  163.6493 C   0  0  0  0  0  0  0  0  0  0  0  0
  128.3094  135.3408  161.0798 O   0  0  0  0  0  0  0  0  0  0  0  0
  133.9694  138.3834  160.0912 C   0  0  0  0  0  0  0  0  0  0  0  0
  134.3517  139.5433  160.8868 N   0  0  0  0  0  0  0  0  0  0  0  0
  132.1147  139.1874  162.9890 H   0  0  0  0  0  0  0  0  0  0  0  0
  133.5239  138.6367  163.9252 H   0  0  0  0  0  0  0  0  0  0  0  0
  132.2841  136.8067  162.6385 H   0  0  0  0  0  0  0  0  0  0  0  0
  134.0310  136.9183  162.3033 H   0  0  0  0  0  0  0  0  0  0  0  0
  130.4634  136.6726  159.9337 H   0  0  0  0  0  0  0  0  0  0  0  0
  131.0336  135.8049  161.3795 H   0  0  0  0  0  0  0  0  0  0  0  0
  132.8500  134.2593  158.6471 H   0  0  0  0  0  0  0  0  0  0  0  0
  127.1803  132.5610  159.8547 H   0  0  0  0  0  0  0  0  0  0  0  0
  125.4179  133.9178  161.3770 H   0  0  0  0  0  0  0  0  0  0  0  0
  125.5889  136.2347  162.6937 H   0  0  0  0  0  0  0  0  0  0  0  0
  127.6046  138.0319  161.8665 H   0  0  0  0  0  0  0  0  0  0  0  0
  129.1301  137.9073  163.8174 H   0  0  0  0  0  0  0  0  0  0  0  0
  129.1378  136.3808  162.9018 H   0  0  0  0  0  0  0  0  0  0  0  0
  128.9922  135.9554  165.3404 H   0  0  0  0  0  0  0  0  0  0  0  0
  127.5168  135.4097  164.5075 H   0  0  0  0  0  0  0  0  0  0  0  0
  127.8588  138.0714  165.9620 H   0  0  0  0  0  0  0  0  0  0  0  0
  125.0290  135.7344  166.0466 H   0  0  0  0  0  0  0  0  0  0  0  0
  124.3413  134.5083  168.0682 H   0  0  0  0  0  0  0  0  0  0  0  0
  125.7672  134.5454  170.0753 H   0  0  0  0  0  0  0  0  0  0  0  0
  127.8808  135.8085  170.0609 H   0  0  0  0  0  0  0  0  0  0  0  0
  128.5686  137.0346  168.0392 H   0  0  0  0  0  0  0  0  0  0  0  0
  125.4351  136.7864  164.6234 H   0  0  0  0  0  0  0  0  0  0  0  0
  125.4274  138.3129  165.5389 H   0  0  0  0  0  0  0  0  0  0  0  0
  127.0484  139.2840  163.9333 H   0  0  0  0  0  0  0  0  0  0  0  0
  125.5729  138.7383  163.1004 H   0  0  0  0  0  0  0  0  0  0  0  0
  134.8096  137.6910  160.0368 H   0  0  0  0  0  0  0  0  0  0  0  0
  133.7081  138.7078  159.0839 H   0  0  0  0  0  0  0  0  0  0  0  0
  134.8960  140.2255  160.4635 H   0  0  0  0  0  0  0  0  0  0  0  0
  1  2  2  0
  2 36  1  0
  2  3  1  0
  3  4  1  0
  3 37  1  0
  3 38  1  0
  4  5  1  0
  4 39  1  0
  4 40  1  0
  5  6  1  1
  5  7  1  0
  5 35  1  0
  7  8  1  0
  7  9  1  0
  7 10  1  0
 10 11  1  0
 10 41  1  0
 10 42  1  0
 11 16  1  0
 11 12  2  0
 12 13  1  0
 12 43  1  0
 13 14  1  0
 13 15  1  0
 15 16  2  0
 16 17  1  0
 17 34  1  0
 17 18  2  0
 18 19  1  0
 18 44  1  0
 19 20  2  0
 19 45  1  0
 20 21  1  0
 20 34  1  0
 21 22  1  0
 21 46  1  0
 22 33  1  0
 22 23  1  0
 22 47  1  6
 23 24  1  0
 23 48  1  0
 23 49  1  0
 24 25  1  0
 24 50  1  0
 24 51  1  0
 25 26  1  0
 25 32  1  0
 25 52  1  1
 26 31  1  0
 26 27  2  0
 27 28  1  0
 27 53  1  0
 28 29  2  0
 28 54  1  0
 29 30  1  0
 29 55  1  0
 30 31  2  0
 30 56  1  0
 31 57  1  0
 32 33  1  0
 32 58  1  0
 32 59  1  0
 33 60  1  0
 33 61  1  0
 35 36  1  0
 35 62  1  0
 35 63  1  0
 36 64  1  0
M  CHG  1   7   1
M  END
>  <DOCK_score>  (1) 
-42.60408

>  <SMILES>  (1) 
O=C1CC[C@H]([NH2+]Cc2c[nH]nc2-c2ccc(NC3CCC(c4ccccc4)CC3)o2)CN1

$$$$
