N[C@H]1C[C@H]1[NH+]=C(NCCC1=CCCC1)NC1CC=CC1
     RDKit          3D

 47 49  0  0  1  0  0  0  0  0999 V2000
  127.1089  137.6045  162.6323 N   0  0  0  0  0  0  0  0  0  0  0  0
  126.8477  136.1934  162.3183 C   0  0  1  0  0  0  0  0  0  0  0  0
  126.2391  135.6549  163.0446 H   0  0  0  0  0  0  0  0  0  0  0  0
  126.6883  135.8150  160.8436 C   0  0  0  0  0  0  0  0  0  0  0  0
  127.9530  135.4122  161.6049 C   0  0  1  0  0  0  0  0  0  0  0  0
  128.0718  134.3598  161.8622 H   0  0  0  0  0  0  0  0  0  0  0  0
  129.1907  136.1288  161.2871 N   0  0  0  0  0  0  0  0  0  0  0  0
  129.4883  136.8576  161.8537 H   0  0  0  0  0  0  0  0  0  0  0  0
  129.8919  135.7867  160.2430 C   0  0  0  0  0  0  0  0  0  0  0  0
  129.4700  134.7534  159.4400 N   0  0  0  0  0  0  0  0  0  0  0  0
  129.7938  134.7569  158.0112 C   0  0  0  0  0  0  0  0  0  0  0  0
  129.2114  133.5044  157.3533 C   0  0  0  0  0  0  0  0  0  0  0  0
  129.8013  132.2772  157.9992 C   0  0  0  0  0  0  0  0  0  0  0  0
  130.8906  131.6819  157.5959 C   0  0  0  0  0  0  0  0  0  0  0  0
  131.2069  130.4828  158.4591 C   0  0  0  0  0  0  0  0  0  0  0  0
  129.8925  130.1872  159.2181 C   0  0  0  0  0  0  0  0  0  0  0  0
  129.2095  131.5745  159.1987 C   0  0  0  0  0  0  0  0  0  0  0  0
  131.0535  136.4591  159.9445 N   0  0  0  0  0  0  0  0  0  0  0  0
  131.5030  137.5600  160.8000 C   0  0  0  0  0  0  0  0  0  0  0  0
  130.5479  138.7716  160.6933 C   0  0  0  0  0  0  0  0  0  0  0  0
  131.4524  139.9803  160.7557 C   0  0  0  0  0  0  0  0  0  0  0  0
  132.6945  139.6501  160.5280 C   0  0  0  0  0  0  0  0  0  0  0  0
  132.8255  138.1660  160.2758 C   0  0  0  0  0  0  0  0  0  0  0  0
  126.3188  138.0231  163.0998 H   0  0  0  0  0  0  0  0  0  0  0  0
  127.9486  137.7031  163.1827 H   0  0  0  0  0  0  0  0  0  0  0  0
  126.7772  136.6129  160.1065 H   0  0  0  0  0  0  0  0  0  0  0  0
  125.9750  135.0274  160.6006 H   0  0  0  0  0  0  0  0  0  0  0  0
  128.9580  134.0223  159.8195 H   0  0  0  0  0  0  0  0  0  0  0  0
  130.8763  134.7642  157.8840 H   0  0  0  0  0  0  0  0  0  0  0  0
  129.3671  135.6445  157.5442 H   0  0  0  0  0  0  0  0  0  0  0  0
  129.4523  133.5069  156.2903 H   0  0  0  0  0  0  0  0  0  0  0  0
  128.1288  133.4971  157.4807 H   0  0  0  0  0  0  0  0  0  0  0  0
  131.4877  132.0043  156.7555 H   0  0  0  0  0  0  0  0  0  0  0  0
  132.0057  130.7209  159.1616 H   0  0  0  0  0  0  0  0  0  0  0  0
  131.4869  129.6315  157.8387 H   0  0  0  0  0  0  0  0  0  0  0  0
  129.2921  129.4481  158.6877 H   0  0  0  0  0  0  0  0  0  0  0  0
  130.0945  129.8641  160.2394 H   0  0  0  0  0  0  0  0  0  0  0  0
  128.1314  131.4653  159.0812 H   0  0  0  0  0  0  0  0  0  0  0  0
  129.4375  132.1227  160.1129 H   0  0  0  0  0  0  0  0  0  0  0  0
  131.5753  136.2045  159.1675 H   0  0  0  0  0  0  0  0  0  0  0  0
  131.6058  137.2320  161.8345 H   0  0  0  0  0  0  0  0  0  0  0  0
  130.0096  138.7485  159.7458 H   0  0  0  0  0  0  0  0  0  0  0  0
  129.8477  138.7779  161.5286 H   0  0  0  0  0  0  0  0  0  0  0  0
  131.1154  140.9857  160.9613 H   0  0  0  0  0  0  0  0  0  0  0  0
  133.5202  140.3462  160.5211 H   0  0  0  0  0  0  0  0  0  0  0  0
  133.6738  137.7606  160.8273 H   0  0  0  0  0  0  0  0  0  0  0  0
  132.9363  137.9705  159.2092 H   0  0  0  0  0  0  0  0  0  0  0  0
  1  2  1  0
  1 24  1  0
  1 25  1  0
  2  3  1  1
  2  5  1  0
  2  4  1  0
  4  5  1  0
  4 26  1  0
  4 27  1  0
  5  6  1  1
  5  7  1  0
  7  8  1  0
  9  7  2  0
  9 10  1  0
  9 18  1  0
 10 11  1  0
 10 28  1  0
 11 12  1  0
 11 29  1  0
 11 30  1  0
 12 13  1  0
 12 31  1  0
 12 32  1  0
 13 17  1  0
 13 14  2  0
 14 15  1  0
 14 33  1  0
 15 16  1  0
 15 34  1  0
 15 35  1  0
 16 17  1  0
 16 36  1  0
 16 37  1  0
 17 38  1  0
 17 39  1  0
 18 19  1  0
 18 40  1  0
 19 23  1  0
 19 20  1  0
 19 41  1  0
 20 21  1  0
 20 42  1  0
 20 43  1  0
 21 22  2  0
 21 44  1  0
 22 23  1  0
 22 45  1  0
 23 46  1  0
 23 47  1  0
M  CHG  1   7   1
M  END
>  <DOCK_score>  (1) 
-41.190536

>  <SMILES>  (1) 
N[C@H]1C[C@H]1[NH+]=C(NCCC1=CCCC1)NC1CC=CC1

$$$$
