CC=CCCNc1cccc([C@@H]([NH3+])C(=O)Nc2cccc(O)c2)c1
     RDKit          3D

 48 49  0  0  1  0  0  0  0  0999 V2000
  137.2277  136.4676  166.4484 C   0  0  0  0  0  0  0  0  0  0  0  0
  136.3092  136.7901  165.2980 C   0  0  0  0  0  0  0  0  0  0  0  0
  136.6269  136.4197  164.0825 C   0  0  0  0  0  0  0  0  0  0  0  0
  135.7084  136.7421  162.9320 C   0  0  0  0  0  0  0  0  0  0  0  0
  134.7073  135.6006  162.7433 C   0  0  0  0  0  0  0  0  0  0  0  0
  133.8144  135.9141  161.6250 N   0  0  0  0  0  0  0  0  0  0  0  0
  132.8099  135.0148  161.2601 C   0  0  0  0  0  0  0  0  0  0  0  0
  132.6564  133.8224  161.9565 C   0  0  0  0  0  0  0  0  0  0  0  0
  131.6625  132.9355  161.5927 C   0  0  0  0  0  0  0  0  0  0  0  0
  130.8168  133.2356  160.5403 C   0  0  0  0  0  0  0  0  0  0  0  0
  130.9704  134.4188  159.8417 C   0  0  0  0  0  0  0  0  0  0  0  0
  130.0504  134.7388  158.6917 C   0  0  1  0  0  0  0  0  0  0  0  0
  129.9323  135.8192  158.6107 H   0  0  0  0  0  0  0  0  0  0  0  0
  130.6241  134.2141  157.4453 N   0  0  0  0  0  0  0  0  0  0  0  0
  130.7336  133.2140  157.5201 H   0  0  0  0  0  0  0  0  0  0  0  0
  130.0081  134.4284  156.6752 H   0  0  0  0  0  0  0  0  0  0  0  0
  131.5245  134.6399  157.2841 H   0  0  0  0  0  0  0  0  0  0  0  0
  128.7055  134.1028  158.9324 C   0  0  0  0  0  0  0  0  0  0  0  0
  128.2679  133.2923  158.1433 O   0  0  0  0  0  0  0  0  0  0  0  0
  127.9889  134.4348  160.0246 N   0  0  0  0  0  0  0  0  0  0  0  0
  126.7402  133.8444  160.2480 C   0  0  0  0  0  0  0  0  0  0  0  0
  126.4871  132.5578  159.7893 C   0  0  0  0  0  0  0  0  0  0  0  0
  125.2543  131.9751  160.0098 C   0  0  0  0  0  0  0  0  0  0  0  0
  124.2722  132.6672  160.6927 C   0  0  0  0  0  0  0  0  0  0  0  0
  124.5174  133.9549  161.1482 C   0  0  0  0  0  0  0  0  0  0  0  0
  123.5487  134.6366  161.8141 O   0  0  0  0  0  0  0  0  0  0  0  0
  125.7533  134.5432  160.9284 C   0  0  0  0  0  0  0  0  0  0  0  0
  131.9625  135.3104  160.2001 C   0  0  0  0  0  0  0  0  0  0  0  0
  136.7996  136.8526  167.3741 H   0  0  0  0  0  0  0  0  0  0  0  0
  137.3480  135.3871  166.5255 H   0  0  0  0  0  0  0  0  0  0  0  0
  138.1999  136.9302  166.2779 H   0  0  0  0  0  0  0  0  0  0  0  0
  135.3889  137.3267  165.4759 H   0  0  0  0  0  0  0  0  0  0  0  0
  137.5472  135.8830  163.9047 H   0  0  0  0  0  0  0  0  0  0  0  0
  136.2955  136.8646  162.0219 H   0  0  0  0  0  0  0  0  0  0  0  0
  135.1704  137.6659  163.1445 H   0  0  0  0  0  0  0  0  0  0  0  0
  134.1202  135.4781  163.6536 H   0  0  0  0  0  0  0  0  0  0  0  0
  135.2453  134.6769  162.5309 H   0  0  0  0  0  0  0  0  0  0  0  0
  133.9210  136.7462  161.1378 H   0  0  0  0  0  0  0  0  0  0  0  0
  133.3134  133.5897  162.7812 H   0  0  0  0  0  0  0  0  0  0  0  0
  131.5426  132.0083  162.1336 H   0  0  0  0  0  0  0  0  0  0  0  0
  130.0372  132.5423  160.2610 H   0  0  0  0  0  0  0  0  0  0  0  0
  128.3389  135.0829  160.6557 H   0  0  0  0  0  0  0  0  0  0  0  0
  127.2546  132.0129  159.2596 H   0  0  0  0  0  0  0  0  0  0  0  0
  125.0593  130.9748  159.6521 H   0  0  0  0  0  0  0  0  0  0  0  0
  123.3109  132.2070  160.8682 H   0  0  0  0  0  0  0  0  0  0  0  0
  123.8125  135.5246  162.0916 H   0  0  0  0  0  0  0  0  0  0  0  0
  125.9474  135.5437  161.2857 H   0  0  0  0  0  0  0  0  0  0  0  0
  132.0788  136.2366  159.6570 H   0  0  0  0  0  0  0  0  0  0  0  0
  1  2  1  0
  1 29  1  0
  1 30  1  0
  1 31  1  0
  2  3  2  0
  2 32  1  0
  3  4  1  0
  3 33  1  0
  4  5  1  0
  4 34  1  0
  4 35  1  0
  5  6  1  0
  5 36  1  0
  5 37  1  0
  6  7  1  0
  6 38  1  0
  7 28  2  0
  7  8  1  0
  8  9  2  0
  8 39  1  0
  9 10  1  0
  9 40  1  0
 10 11  2  0
 10 41  1  0
 11 12  1  0
 11 28  1  0
 12 13  1  6
 12 14  1  0
 12 18  1  0
 14 15  1  0
 14 16  1  0
 14 17  1  0
 18 19  2  0
 18 20  1  0
 20 21  1  0
 20 42  1  0
 21 27  1  0
 21 22  2  0
 22 23  1  0
 22 43  1  0
 23 24  2  0
 23 44  1  0
 24 25  1  0
 24 45  1  0
 25 26  1  0
 25 27  2  0
 26 46  1  0
 27 47  1  0
 28 48  1  0
M  CHG  1  14   1
M  END
>  <DOCK_score>  (1) 
-43.955681

>  <SMILES>  (1) 
CC=CCCNc1cccc([C@@H]([NH3+])C(=O)Nc2cccc(O)c2)c1

$$$$
