FCCc1ccc(-c2c[nH]c(Nc3ccncc3-c3ccccc3)[nH+]2)cc1
     RDKit          3D

 47 50  0  0  1  0  0  0  0  0999 V2000
  130.4662  129.0445  149.7913 F   0  0  0  0  0  0  0  0  0  0  0  0
  130.2534  129.8269  150.9314 C   0  0  0  0  0  0  0  0  0  0  0  0
  131.0252  129.2315  152.1107 C   0  0  0  0  0  0  0  0  0  0  0  0
  130.7950  130.0742  153.3386 C   0  0  0  0  0  0  0  0  0  0  0  0
  129.9827  131.1920  153.2650 C   0  0  0  0  0  0  0  0  0  0  0  0
  129.7639  131.9641  154.3877 C   0  0  0  0  0  0  0  0  0  0  0  0
  130.3721  131.6226  155.5944 C   0  0  0  0  0  0  0  0  0  0  0  0
  130.1456  132.4520  156.8032 C   0  0  0  0  0  0  0  0  0  0  0  0
  129.6035  132.0280  157.9721 C   0  0  0  0  0  0  0  0  0  0  0  0
  129.5783  133.1111  158.8156 N   0  0  0  0  0  0  0  0  0  0  0  0
  129.2455  133.1221  159.7267 H   0  0  0  0  0  0  0  0  0  0  0  0
  130.1062  134.1665  158.1374 C   0  0  0  0  0  0  0  0  0  0  0  0
  130.2614  135.4502  158.6358 N   0  0  0  0  0  0  0  0  0  0  0  0
  129.3763  135.9366  159.5927 C   0  0  0  0  0  0  0  0  0  0  0  0
  128.0553  135.4953  159.6362 C   0  0  0  0  0  0  0  0  0  0  0  0
  127.2084  136.0015  160.6001 C   0  0  0  0  0  0  0  0  0  0  0  0
  127.6291  136.8941  161.4775 N   0  0  0  0  0  0  0  0  0  0  0  0
  128.8683  137.3433  161.4788 C   0  0  0  0  0  0  0  0  0  0  0  0
  129.7912  136.8821  160.5457 C   0  0  0  0  0  0  0  0  0  0  0  0
  131.1869  137.3837  160.5530 C   0  0  0  0  0  0  0  0  0  0  0  0
  132.1605  136.7320  161.3080 C   0  0  0  0  0  0  0  0  0  0  0  0
  133.4588  137.2001  161.3068 C   0  0  0  0  0  0  0  0  0  0  0  0
  133.7919  138.3209  160.5675 C   0  0  0  0  0  0  0  0  0  0  0  0
  132.8286  138.9747  159.8206 C   0  0  0  0  0  0  0  0  0  0  0  0
  131.5285  138.5122  159.8097 C   0  0  0  0  0  0  0  0  0  0  0  0
  130.4493  133.7669  156.9371 N   0  0  0  0  0  0  0  0  0  0  0  0
  130.8533  134.3234  156.2531 H   0  0  0  0  0  0  0  0  0  0  0  0
  131.1935  130.4985  155.6612 C   0  0  0  0  0  0  0  0  0  0  0  0
  131.4003  129.7303  154.5336 C   0  0  0  0  0  0  0  0  0  0  0  0
  129.1882  129.8446  151.1656 H   0  0  0  0  0  0  0  0  0  0  0  0
  130.6007  130.8429  150.7451 H   0  0  0  0  0  0  0  0  0  0  0  0
  130.6772  128.2154  152.2969 H   0  0  0  0  0  0  0  0  0  0  0  0
  132.0896  129.2138  151.8766 H   0  0  0  0  0  0  0  0  0  0  0  0
  129.5162  131.4585  152.3282 H   0  0  0  0  0  0  0  0  0  0  0  0
  129.1262  132.8338  154.3304 H   0  0  0  0  0  0  0  0  0  0  0  0
  129.2576  131.0299  158.1963 H   0  0  0  0  0  0  0  0  0  0  0  0
  130.9871  136.0095  158.3176 H   0  0  0  0  0  0  0  0  0  0  0  0
  127.6989  134.7663  158.9236 H   0  0  0  0  0  0  0  0  0  0  0  0
  126.1837  135.6624  160.6373 H   0  0  0  0  0  0  0  0  0  0  0  0
  129.1714  138.0736  162.2145 H   0  0  0  0  0  0  0  0  0  0  0  0
  131.9005  135.8596  161.8891 H   0  0  0  0  0  0  0  0  0  0  0  0
  134.2151  136.6931  161.8875 H   0  0  0  0  0  0  0  0  0  0  0  0
  134.8082  138.6864  160.5730 H   0  0  0  0  0  0  0  0  0  0  0  0
  133.0944  139.8493  159.2453 H   0  0  0  0  0  0  0  0  0  0  0  0
  130.7772  139.0233  159.2260 H   0  0  0  0  0  0  0  0  0  0  0  0
  131.6676  130.2295  156.5936 H   0  0  0  0  0  0  0  0  0  0  0  0
  132.0366  128.8592  154.5842 H   0  0  0  0  0  0  0  0  0  0  0  0
  1  2  1  0
  2  3  1  0
  2 30  1  0
  2 31  1  0
  3  4  1  0
  3 32  1  0
  3 33  1  0
  4 29  2  0
  4  5  1  0
  5  6  2  0
  5 34  1  0
  6  7  1  0
  6 35  1  0
  7  8  1  0
  7 28  2  0
  8 26  1  0
  8  9  2  0
  9 10  1  0
  9 36  1  0
 10 11  1  0
 10 12  1  0
 12 13  1  0
 12 26  2  0
 13 14  1  0
 13 37  1  0
 14 19  1  0
 14 15  2  0
 15 16  1  0
 15 38  1  0
 16 17  2  0
 16 39  1  0
 17 18  1  0
 18 19  2  0
 18 40  1  0
 19 20  1  0
 20 25  1  0
 20 21  2  0
 21 22  1  0
 21 41  1  0
 22 23  2  0
 22 42  1  0
 23 24  1  0
 23 43  1  0
 24 25  2  0
 24 44  1  0
 25 45  1  0
 26 27  1  0
 28 29  1  0
 28 46  1  0
 29 47  1  0
M  CHG  1  26   1
M  END
>  <DOCK_score>  (1) 
-57.416157

>  <SMILES>  (1) 
FCCc1ccc(-c2c[nH]c(Nc3ccncc3-c3ccccc3)[nH+]2)cc1

$$$$
