CC[C@@H]([NH2+]Cc1ccc(SC2[C@H](C)[C@H]2C)cc1)c1cc[nH]n1
     RDKit          3D

 48 50  0  0  1  0  0  0  0  0999 V2000
  128.2222  135.9551  156.8872 C   0  0  0  0  0  0  0  0  0  0  0  0
  128.9298  134.6897  157.3759 C   0  0  0  0  0  0  0  0  0  0  0  0
  129.2185  134.8127  158.8733 C   0  0  1  0  0  0  0  0  0  0  0  0
  129.7226  133.9111  159.2213 H   0  0  0  0  0  0  0  0  0  0  0  0
  130.0800  135.9784  159.1119 N   0  0  0  0  0  0  0  0  0  0  0  0
  130.7778  136.0352  158.3853 H   0  0  0  0  0  0  0  0  0  0  0  0
  129.5196  136.8174  159.1063 H   0  0  0  0  0  0  0  0  0  0  0  0
  130.7414  135.8398  160.4162 C   0  0  0  0  0  0  0  0  0  0  0  0
  131.6252  137.0356  160.6609 C   0  0  0  0  0  0  0  0  0  0  0  0
  132.9466  137.0117  160.2534 C   0  0  0  0  0  0  0  0  0  0  0  0
  133.7581  138.1073  160.4716 C   0  0  0  0  0  0  0  0  0  0  0  0
  133.2483  139.2311  161.1110 C   0  0  0  0  0  0  0  0  0  0  0  0
  134.2820  140.6289  161.3982 S   0  0  0  0  0  0  0  0  0  0  0  0
  134.9978  140.2791  163.0279 C   0  0  0  0  0  0  0  0  0  0  0  0
  136.4082  140.8023  163.3070 C   0  0  2  0  0  0  0  0  0  0  0  0
  136.6304  141.1337  164.3213 H   0  0  0  0  0  0  0  0  0  0  0  0
  137.1070  141.5803  162.1902 C   0  0  0  0  0  0  0  0  0  0  0  0
  136.1767  139.3059  163.0877 C   0  0  1  0  0  0  0  0  0  0  0  0
  136.5223  138.8757  162.1476 H   0  0  0  0  0  0  0  0  0  0  0  0
  136.2747  138.3889  164.3085 C   0  0  0  0  0  0  0  0  0  0  0  0
  131.9214  139.2495  161.5238 C   0  0  0  0  0  0  0  0  0  0  0  0
  131.1145  138.1521  161.2976 C   0  0  0  0  0  0  0  0  0  0  0  0
  127.9222  134.9844  159.6224 C   0  0  0  0  0  0  0  0  0  0  0  0
  126.8566  134.0785  159.6359 C   0  0  0  0  0  0  0  0  0  0  0  0
  125.8821  134.5936  160.4210 C   0  0  0  0  0  0  0  0  0  0  0  0
  126.3158  135.7832  160.8877 N   0  0  0  0  0  0  0  0  0  0  0  0
  125.8254  136.3786  161.4758 H   0  0  0  0  0  0  0  0  0  0  0  0
  127.5991  136.0066  160.3725 N   0  0  0  0  0  0  0  0  0  0  0  0
  127.2429  136.0294  157.3599 H   0  0  0  0  0  0  0  0  0  0  0  0
  128.8191  136.8290  157.1485 H   0  0  0  0  0  0  0  0  0  0  0  0
  128.1007  135.9086  155.8050 H   0  0  0  0  0  0  0  0  0  0  0  0
  129.8675  134.5655  156.8341 H   0  0  0  0  0  0  0  0  0  0  0  0
  128.2906  133.8247  157.1989 H   0  0  0  0  0  0  0  0  0  0  0  0
  129.9874  135.7784  161.2012 H   0  0  0  0  0  0  0  0  0  0  0  0
  131.3466  134.9333  160.4222 H   0  0  0  0  0  0  0  0  0  0  0  0
  133.3433  136.1364  159.7605 H   0  0  0  0  0  0  0  0  0  0  0  0
  134.7887  138.0896  160.1494 H   0  0  0  0  0  0  0  0  0  0  0  0
  134.2918  140.2663  163.8584 H   0  0  0  0  0  0  0  0  0  0  0  0
  137.2041  142.6260  162.4817 H   0  0  0  0  0  0  0  0  0  0  0  0
  138.0969  141.1578  162.0176 H   0  0  0  0  0  0  0  0  0  0  0  0
  136.5179  141.5111  161.2758 H   0  0  0  0  0  0  0  0  0  0  0  0
  136.0888  137.3588  164.0049 H   0  0  0  0  0  0  0  0  0  0  0  0
  137.2721  138.4658  164.7415 H   0  0  0  0  0  0  0  0  0  0  0  0
  135.5331  138.6891  165.0488 H   0  0  0  0  0  0  0  0  0  0  0  0
  131.5221  140.1209  162.0213 H   0  0  0  0  0  0  0  0  0  0  0  0
  130.0832  138.1658  161.6177 H   0  0  0  0  0  0  0  0  0  0  0  0
  126.8198  133.1329  159.1154 H   0  0  0  0  0  0  0  0  0  0  0  0
  124.9284  134.1346  160.6358 H   0  0  0  0  0  0  0  0  0  0  0  0
  1  2  1  0
  1 29  1  0
  1 30  1  0
  1 31  1  0
  2  3  1  0
  2 32  1  0
  2 33  1  0
  3  4  1  1
  3  5  1  0
  3 23  1  0
  5  6  1  0
  5  7  1  0
  5  8  1  0
  8  9  1  0
  8 34  1  0
  8 35  1  0
  9 22  1  0
  9 10  2  0
 10 11  1  0
 10 36  1  0
 11 12  2  0
 11 37  1  0
 12 13  1  0
 12 21  1  0
 13 14  1  0
 14 18  1  0
 14 15  1  0
 14 38  1  0
 15 16  1  1
 15 17  1  0
 15 18  1  0
 17 39  1  0
 17 40  1  0
 17 41  1  0
 18 19  1  6
 18 20  1  0
 20 42  1  0
 20 43  1  0
 20 44  1  0
 21 22  2  0
 21 45  1  0
 22 46  1  0
 23 28  2  0
 23 24  1  0
 24 25  2  0
 24 47  1  0
 25 26  1  0
 25 48  1  0
 26 27  1  0
 26 28  1  0
M  CHG  1   5   1
M  END
>  <DOCK_score>  (1) 
-42.296501

>  <SMILES>  (1) 
CC[C@@H]([NH2+]Cc1ccc(SC2[C@H](C)[C@H]2C)cc1)c1cc[nH]n1

$$$$
