Cc1ccc(C(Nc2[nH]cc(-c3ccc(N)cc3)[nH+]2)[C@H](O)c2ccc(C)cc2)cc1
     RDKit          3D

 57 60  0  0  1  0  0  0  0  0999 V2000
  125.8637  135.7656  163.5999 C   0  0  0  0  0  0  0  0  0  0  0  0
  127.1767  135.6373  162.8714 C   0  0  0  0  0  0  0  0  0  0  0  0
  127.3146  136.1582  161.5983 C   0  0  0  0  0  0  0  0  0  0  0  0
  128.5188  136.0405  160.9300 C   0  0  0  0  0  0  0  0  0  0  0  0
  129.5856  135.4025  161.5350 C   0  0  0  0  0  0  0  0  0  0  0  0
  130.8985  135.2743  160.8065 C   0  0  1  0  0  0  0  0  0  0  0  0
  130.6523  135.2098  159.3638 N   0  0  0  0  0  0  0  0  0  0  0  0
  130.4565  133.9849  158.7491 C   0  0  0  0  0  0  0  0  0  0  0  0
  129.9135  132.8826  159.3336 N   0  0  0  0  0  0  0  0  0  0  0  0
  129.5967  132.8141  160.2478 H   0  0  0  0  0  0  0  0  0  0  0  0
  129.8936  131.8850  158.3878 C   0  0  0  0  0  0  0  0  0  0  0  0
  130.4330  132.4042  157.2573 C   0  0  0  0  0  0  0  0  0  0  0  0
  130.6221  131.6884  155.9717 C   0  0  0  0  0  0  0  0  0  0  0  0
  129.9985  132.1540  154.8153 C   0  0  0  0  0  0  0  0  0  0  0  0
  130.1803  131.4904  153.6202 C   0  0  0  0  0  0  0  0  0  0  0  0
  130.9750  130.3517  153.5705 C   0  0  0  0  0  0  0  0  0  0  0  0
  131.1526  129.6768  152.3602 N   0  0  0  0  0  0  0  0  0  0  0  0
  131.5933  129.8820  154.7237 C   0  0  0  0  0  0  0  0  0  0  0  0
  131.4190  130.5457  155.9196 C   0  0  0  0  0  0  0  0  0  0  0  0
  130.7688  133.6941  157.5097 N   0  0  0  0  0  0  0  0  0  0  0  0
  131.1755  134.3039  156.8743 H   0  0  0  0  0  0  0  0  0  0  0  0
  131.7765  136.4874  161.1204 C   0  0  2  0  0  0  0  0  0  0  0  0
  131.1608  137.3867  161.1375 H   0  0  0  0  0  0  0  0  0  0  0  0
  132.7840  136.6188  160.1155 O   0  0  0  0  0  0  0  0  0  0  0  0
  132.4298  136.3003  162.4654 C   0  0  0  0  0  0  0  0  0  0  0  0
  133.2631  135.2193  162.6845 C   0  0  0  0  0  0  0  0  0  0  0  0
  133.8659  135.0500  163.9171 C   0  0  0  0  0  0  0  0  0  0  0  0
  133.6281  135.9567  164.9331 C   0  0  0  0  0  0  0  0  0  0  0  0
  134.2823  135.7701  166.2778 C   0  0  0  0  0  0  0  0  0  0  0  0
  132.7906  137.0347  164.7155 C   0  0  0  0  0  0  0  0  0  0  0  0
  132.1914  137.2064  163.4817 C   0  0  0  0  0  0  0  0  0  0  0  0
  129.4463  134.8774  162.8061 C   0  0  0  0  0  0  0  0  0  0  0  0
  128.2432  134.9989  163.4763 C   0  0  0  0  0  0  0  0  0  0  0  0
  125.2378  134.9017  163.3758 H   0  0  0  0  0  0  0  0  0  0  0  0
  126.0471  135.8130  164.6733 H   0  0  0  0  0  0  0  0  0  0  0  0
  125.3567  136.6750  163.2774 H   0  0  0  0  0  0  0  0  0  0  0  0
  126.4812  136.6569  161.1257 H   0  0  0  0  0  0  0  0  0  0  0  0
  128.6264  136.4473  159.9353 H   0  0  0  0  0  0  0  0  0  0  0  0
  131.4060  134.3653  161.1294 H   0  0  0  0  0  0  0  0  0  0  0  0
  130.6264  136.0254  158.8393 H   0  0  0  0  0  0  0  0  0  0  0  0
  129.5240  130.8790  158.5211 H   0  0  0  0  0  0  0  0  0  0  0  0
  129.3768  133.0363  154.8543 H   0  0  0  0  0  0  0  0  0  0  0  0
  129.7010  131.8533  152.7230 H   0  0  0  0  0  0  0  0  0  0  0  0
  131.7072  128.8819  152.3248 H   0  0  0  0  0  0  0  0  0  0  0  0
  130.7213  130.0037  151.5552 H   0  0  0  0  0  0  0  0  0  0  0  0
  132.2106  128.9967  154.6827 H   0  0  0  0  0  0  0  0  0  0  0  0
  131.8997  130.1809  156.8152 H   0  0  0  0  0  0  0  0  0  0  0  0
  132.4348  136.7426  159.2223 H   0  0  0  0  0  0  0  0  0  0  0  0
  133.4459  134.5090  161.8920 H   0  0  0  0  0  0  0  0  0  0  0  0
  134.5204  134.2079  164.0870 H   0  0  0  0  0  0  0  0  0  0  0  0
  133.6373  135.1647  166.9147 H   0  0  0  0  0  0  0  0  0  0  0  0
  135.2408  135.2675  166.1489 H   0  0  0  0  0  0  0  0  0  0  0  0
  134.4417  136.7432  166.7424 H   0  0  0  0  0  0  0  0  0  0  0  0
  132.6047  137.7431  165.5093 H   0  0  0  0  0  0  0  0  0  0  0  0
  131.5369  138.0487  163.3117 H   0  0  0  0  0  0  0  0  0  0  0  0
  130.2782  134.3752  163.2772 H   0  0  0  0  0  0  0  0  0  0  0  0
  128.1356  134.5922  164.4709 H   0  0  0  0  0  0  0  0  0  0  0  0
  1  2  1  0
  1 34  1  0
  1 35  1  0
  1 36  1  0
  2 33  2  0
  2  3  1  0
  3  4  2  0
  3 37  1  0
  4  5  1  0
  4 38  1  0
  5  6  1  0
  5 32  2  0
  6  7  1  0
  6 22  1  0
  6 39  1  1
  7 40  1  0
  8  7  1  0
  8 20  2  0
  8  9  1  0
  9 10  1  0
  9 11  1  0
 11 12  2  0
 11 41  1  0
 12 13  1  0
 12 20  1  0
 13 19  1  0
 13 14  2  0
 14 15  1  0
 14 42  1  0
 15 16  2  0
 15 43  1  0
 16 17  1  0
 16 18  1  0
 17 44  1  0
 17 45  1  0
 18 19  2  0
 18 46  1  0
 19 47  1  0
 20 21  1  0
 22 23  1  1
 22 24  1  0
 22 25  1  0
 24 48  1  0
 25 31  1  0
 25 26  2  0
 26 27  1  0
 26 49  1  0
 27 28  2  0
 27 50  1  0
 28 29  1  0
 28 30  1  0
 29 51  1  0
 29 52  1  0
 29 53  1  0
 30 31  2  0
 30 54  1  0
 31 55  1  0
 32 33  1  0
 32 56  1  0
 33 57  1  0
M  CHG  1  20   1
M  END
>  <DOCK_score>  (1) 
-55.921906

>  <SMILES>  (1) 
Cc1ccc(C(Nc2[nH]cc(-c3ccc(N)cc3)[nH+]2)[C@H](O)c2ccc(C)cc2)cc1

$$$$
