O=C1CCC(NC(NC2CC2)=[NH+][C@H]2COc3ncccc3C2)CN1
     RDKit          3D

 48 51  0  0  1  0  0  0  0  0999 V2000
  123.6632  133.7264  161.4407 O   0  0  0  0  0  0  0  0  0  0  0  0
  124.8308  133.9554  161.2056 C   0  0  0  0  0  0  0  0  0  0  0  0
  125.6838  132.8349  160.6836 C   0  0  0  0  0  0  0  0  0  0  0  0
  127.1641  133.1797  160.8643 C   0  0  0  0  0  0  0  0  0  0  0  0
  127.4013  134.5956  160.3255 C   0  0  2  0  0  0  0  0  0  0  0  0
  128.8365  134.8897  160.3218 N   0  0  0  0  0  0  0  0  0  0  0  0
  129.5963  134.5927  159.2151 C   0  0  0  0  0  0  0  0  0  0  0  0
  129.0092  134.0198  158.1119 N   0  0  0  0  0  0  0  0  0  0  0  0
  129.8187  133.7034  156.9326 C   0  0  0  0  0  0  0  0  0  0  0  0
  129.7191  132.2852  156.3670 C   0  0  0  0  0  0  0  0  0  0  0  0
  130.9803  132.7243  157.1151 C   0  0  0  0  0  0  0  0  0  0  0  0
  130.8732  134.8543  159.2119 N   0  0  0  0  0  0  0  0  0  0  0  0
  131.3224  135.0678  158.3792 H   0  0  0  0  0  0  0  0  0  0  0  0
  131.6299  134.8259  160.4661 C   0  0  1  0  0  0  0  0  0  0  0  0
  130.9647  134.5695  161.2906 H   0  0  0  0  0  0  0  0  0  0  0  0
  132.7562  133.7891  160.3672 C   0  0  0  0  0  0  0  0  0  0  0  0
  133.4101  133.7099  161.6343 O   0  0  0  0  0  0  0  0  0  0  0  0
  133.7970  134.8705  162.2221 C   0  0  0  0  0  0  0  0  0  0  0  0
  134.6940  134.8131  163.1997 N   0  0  0  0  0  0  0  0  0  0  0  0
  135.1136  135.8933  163.8264 C   0  0  0  0  0  0  0  0  0  0  0  0
  134.6305  137.1413  163.4862 C   0  0  0  0  0  0  0  0  0  0  0  0
  133.6940  137.2472  162.4686 C   0  0  0  0  0  0  0  0  0  0  0  0
  133.2748  136.0914  161.8284 C   0  0  0  0  0  0  0  0  0  0  0  0
  132.2610  136.1976  160.7193 C   0  0  0  0  0  0  0  0  0  0  0  0
  126.6757  135.5920  161.2306 C   0  0  0  0  0  0  0  0  0  0  0  0
  125.2886  135.1887  161.4244 N   0  0  0  0  0  0  0  0  0  0  0  0
  125.4738  132.6832  159.6249 H   0  0  0  0  0  0  0  0  0  0  0  0
  125.4550  131.9215  161.2326 H   0  0  0  0  0  0  0  0  0  0  0  0
  127.7768  132.4687  160.3100 H   0  0  0  0  0  0  0  0  0  0  0  0
  127.4239  133.1414  161.9222 H   0  0  0  0  0  0  0  0  0  0  0  0
  127.0100  134.6711  159.3108 H   0  0  0  0  0  0  0  0  0  0  0  0
  129.2507  135.2939  161.1003 H   0  0  0  0  0  0  0  0  0  0  0  0
  128.0589  133.8251  158.1141 H   0  0  0  0  0  0  0  0  0  0  0  0
  129.9554  134.5197  156.2233 H   0  0  0  0  0  0  0  0  0  0  0  0
  129.0510  131.5877  156.8723 H   0  0  0  0  0  0  0  0  0  0  0  0
  129.7904  132.1684  155.2857 H   0  0  0  0  0  0  0  0  0  0  0  0
  131.8808  132.8963  156.5255 H   0  0  0  0  0  0  0  0  0  0  0  0
  131.1422  132.3156  158.1125 H   0  0  0  0  0  0  0  0  0  0  0  0
  132.3371  132.8163  160.1097 H   0  0  0  0  0  0  0  0  0  0  0  0
  133.4715  134.0968  159.6046 H   0  0  0  0  0  0  0  0  0  0  0  0
  135.8443  135.8014  164.6164 H   0  0  0  0  0  0  0  0  0  0  0  0
  134.9776  138.0229  164.0049 H   0  0  0  0  0  0  0  0  0  0  0  0
  133.2999  138.2106  162.1803 H   0  0  0  0  0  0  0  0  0  0  0  0
  132.7526  136.5443  159.8104 H   0  0  0  0  0  0  0  0  0  0  0  0
  131.4844  136.9073  161.0045 H   0  0  0  0  0  0  0  0  0  0  0  0
  126.7029  136.5807  160.7727 H   0  0  0  0  0  0  0  0  0  0  0  0
  127.1776  135.6321  162.1973 H   0  0  0  0  0  0  0  0  0  0  0  0
  124.6597  135.8584  161.7357 H   0  0  0  0  0  0  0  0  0  0  0  0
  1  2  2  0
  2 26  1  0
  2  3  1  0
  3  4  1  0
  3 27  1  0
  3 28  1  0
  4  5  1  0
  4 29  1  0
  4 30  1  0
  5  6  1  0
  5 25  1  0
  5 31  1  6
  6 32  1  0
  7  6  1  0
  7  8  1  0
  7 12  2  0
  8  9  1  0
  8 33  1  0
  9 11  1  0
  9 10  1  0
  9 34  1  0
 10 11  1  0
 10 35  1  0
 10 36  1  0
 11 37  1  0
 11 38  1  0
 12 13  1  0
 12 14  1  0
 14 15  1  1
 14 24  1  0
 14 16  1  0
 16 17  1  0
 16 39  1  0
 16 40  1  0
 17 18  1  0
 18 23  2  0
 18 19  1  0
 19 20  2  0
 20 21  1  0
 20 41  1  0
 21 22  2  0
 21 42  1  0
 22 23  1  0
 22 43  1  0
 23 24  1  0
 24 44  1  0
 24 45  1  0
 25 26  1  0
 25 46  1  0
 25 47  1  0
 26 48  1  0
M  CHG  1  12   1
M  END
>  <DOCK_score>  (1) 
-45.845211

>  <SMILES>  (1) 
O=C1CCC(NC(NC2CC2)=[NH+][C@H]2COc3ncccc3C2)CN1

$$$$
