Fc1ccccc1CC(Cc1ccccc1F)Nc1[nH]cc(-c2ccc(-c3ccccc3)cc2)[nH+]1
     RDKit          3D

 61 65  0  0  1  0  0  0  0  0999 V2000
  131.7500  140.1301  159.6570 F   0  0  0  0  0  0  0  0  0  0  0  0
  132.7384  139.4553  160.2838 C   0  0  0  0  0  0  0  0  0  0  0  0
  134.0586  139.6670  159.9234 C   0  0  0  0  0  0  0  0  0  0  0  0
  135.0683  138.9717  160.5610 C   0  0  0  0  0  0  0  0  0  0  0  0
  134.7612  138.0693  161.5625 C   0  0  0  0  0  0  0  0  0  0  0  0
  133.4443  137.8617  161.9273 C   0  0  0  0  0  0  0  0  0  0  0  0
  132.4326  138.5557  161.2906 C   0  0  0  0  0  0  0  0  0  0  0  0
  130.9969  138.3288  161.6882 C   0  0  0  0  0  0  0  0  0  0  0  0
  130.6346  136.8578  161.4734 C   0  0  0  0  0  0  0  0  0  0  0  0
  129.1768  136.6274  161.8769 C   0  0  0  0  0  0  0  0  0  0  0  0
  129.0848  136.4990  163.3755 C   0  0  0  0  0  0  0  0  0  0  0  0
  128.8750  137.6218  164.1540 C   0  0  0  0  0  0  0  0  0  0  0  0
  128.7899  137.5043  165.5285 C   0  0  0  0  0  0  0  0  0  0  0  0
  128.9148  136.2637  166.1266 C   0  0  0  0  0  0  0  0  0  0  0  0
  129.1251  135.1404  165.3505 C   0  0  0  0  0  0  0  0  0  0  0  0
  129.2043  135.2558  163.9728 C   0  0  0  0  0  0  0  0  0  0  0  0
  129.4037  134.1570  163.2125 F   0  0  0  0  0  0  0  0  0  0  0  0
  130.8107  136.5128  160.0605 N   0  0  0  0  0  0  0  0  0  0  0  0
  130.5419  135.2272  159.6232 C   0  0  0  0  0  0  0  0  0  0  0  0
  130.1095  134.1989  160.4030 N   0  0  0  0  0  0  0  0  0  0  0  0
  129.9368  134.2345  161.3569 H   0  0  0  0  0  0  0  0  0  0  0  0
  129.9588  133.1026  159.5896 C   0  0  0  0  0  0  0  0  0  0  0  0
  130.3108  133.4900  158.3379 C   0  0  0  0  0  0  0  0  0  0  0  0
  130.3075  132.6352  157.1266 C   0  0  0  0  0  0  0  0  0  0  0  0
  130.0722  133.2016  155.8737 C   0  0  0  0  0  0  0  0  0  0  0  0
  130.0692  132.4073  154.7485 C   0  0  0  0  0  0  0  0  0  0  0  0
  130.3017  131.0370  154.8617 C   0  0  0  0  0  0  0  0  0  0  0  0
  130.2989  130.1820  153.6499 C   0  0  0  0  0  0  0  0  0  0  0  0
  131.0957  129.0393  153.5981 C   0  0  0  0  0  0  0  0  0  0  0  0
  131.0850  128.2446  152.4698 C   0  0  0  0  0  0  0  0  0  0  0  0
  130.2938  128.5858  151.3877 C   0  0  0  0  0  0  0  0  0  0  0  0
  129.5055  129.7218  151.4313 C   0  0  0  0  0  0  0  0  0  0  0  0
  129.5041  130.5210  152.5563 C   0  0  0  0  0  0  0  0  0  0  0  0
  130.5375  130.4705  156.1141 C   0  0  0  0  0  0  0  0  0  0  0  0
  130.5402  131.2645  157.2396 C   0  0  0  0  0  0  0  0  0  0  0  0
  130.6609  134.7999  158.3900 N   0  0  0  0  0  0  0  0  0  0  0  0
  130.9528  135.3346  157.6351 H   0  0  0  0  0  0  0  0  0  0  0  0
  134.2988  140.3721  159.1413 H   0  0  0  0  0  0  0  0  0  0  0  0
  136.0977  139.1335  160.2772 H   0  0  0  0  0  0  0  0  0  0  0  0
  135.5510  137.5265  162.0606 H   0  0  0  0  0  0  0  0  0  0  0  0
  133.2057  137.1571  162.7103 H   0  0  0  0  0  0  0  0  0  0  0  0
  130.3472  138.9558  161.0775 H   0  0  0  0  0  0  0  0  0  0  0  0
  130.8659  138.5854  162.7394 H   0  0  0  0  0  0  0  0  0  0  0  0
  131.2842  136.2309  162.0842 H   0  0  0  0  0  0  0  0  0  0  0  0
  128.5707  137.4709  161.5465 H   0  0  0  0  0  0  0  0  0  0  0  0
  128.8110  135.7125  161.4107 H   0  0  0  0  0  0  0  0  0  0  0  0
  128.7780  138.5914  163.6880 H   0  0  0  0  0  0  0  0  0  0  0  0
  128.6260  138.3823  166.1360 H   0  0  0  0  0  0  0  0  0  0  0  0
  128.8486  136.1735  167.2007 H   0  0  0  0  0  0  0  0  0  0  0  0
  129.2230  134.1716  165.8178 H   0  0  0  0  0  0  0  0  0  0  0  0
  131.1155  137.1853  159.4314 H   0  0  0  0  0  0  0  0  0  0  0  0
  129.6257  132.1200  159.8891 H   0  0  0  0  0  0  0  0  0  0  0  0
  129.8969  134.2637  155.7856 H   0  0  0  0  0  0  0  0  0  0  0  0
  129.8869  132.8459  153.7785 H   0  0  0  0  0  0  0  0  0  0  0  0
  131.7168  128.7742  154.4408 H   0  0  0  0  0  0  0  0  0  0  0  0
  131.6987  127.3568  152.4302 H   0  0  0  0  0  0  0  0  0  0  0  0
  130.2918  127.9633  150.5052 H   0  0  0  0  0  0  0  0  0  0  0  0
  128.8902  129.9837  150.5832 H   0  0  0  0  0  0  0  0  0  0  0  0
  128.8886  131.4079  152.5890 H   0  0  0  0  0  0  0  0  0  0  0  0
  130.7176  129.4092  156.2016 H   0  0  0  0  0  0  0  0  0  0  0  0
  130.7224  130.8258  158.2096 H   0  0  0  0  0  0  0  0  0  0  0  0
  1  2  1  0
  2  7  2  0
  2  3  1  0
  3  4  2  0
  3 38  1  0
  4  5  1  0
  4 39  1  0
  5  6  2  0
  5 40  1  0
  6  7  1  0
  6 41  1  0
  7  8  1  0
  8  9  1  0
  8 42  1  0
  8 43  1  0
  9 10  1  0
  9 18  1  0
  9 44  1  0
 10 11  1  0
 10 45  1  0
 10 46  1  0
 11 16  1  0
 11 12  2  0
 12 13  1  0
 12 47  1  0
 13 14  2  0
 13 48  1  0
 14 15  1  0
 14 49  1  0
 15 16  2  0
 15 50  1  0
 16 17  1  0
 18 51  1  0
 19 18  1  0
 19 36  2  0
 19 20  1  0
 20 21  1  0
 20 22  1  0
 22 23  2  0
 22 52  1  0
 23 24  1  0
 23 36  1  0
 24 35  1  0
 24 25  2  0
 25 26  1  0
 25 53  1  0
 26 27  2  0
 26 54  1  0
 27 28  1  0
 27 34  1  0
 28 33  1  0
 28 29  2  0
 29 30  1  0
 29 55  1  0
 30 31  2  0
 30 56  1  0
 31 32  1  0
 31 57  1  0
 32 33  2  0
 32 58  1  0
 33 59  1  0
 34 35  2  0
 34 60  1  0
 35 61  1  0
 36 37  1  0
M  CHG  1  36   1
M  END
>  <DOCK_score>  (1) 
-57.107574

>  <SMILES>  (1) 
Fc1ccccc1CC(Cc1ccccc1F)Nc1[nH]cc(-c2ccc(-c3ccccc3)cc2)[nH+]1

$$$$
