COc1cc(F)ccc1-c1ccc(COC(=O)c2c[nH]nc2[C@H]2CCC[NH2+]C2)cc1
     RDKit          3D

 55 58  0  0  1  0  0  0  0  0999 V2000
  137.1741  138.0143  163.6135 C   0  0  0  0  0  0  0  0  0  0  0  0
  136.5523  139.1785  163.0658 O   0  0  0  0  0  0  0  0  0  0  0  0
  136.4721  139.2557  161.7119 C   0  0  0  0  0  0  0  0  0  0  0  0
  137.4938  139.8484  160.9881 C   0  0  0  0  0  0  0  0  0  0  0  0
  137.4107  139.9264  159.6088 C   0  0  0  0  0  0  0  0  0  0  0  0
  138.4094  140.5045  158.9060 F   0  0  0  0  0  0  0  0  0  0  0  0
  136.3069  139.4131  158.9454 C   0  0  0  0  0  0  0  0  0  0  0  0
  135.2807  138.8262  159.6564 C   0  0  0  0  0  0  0  0  0  0  0  0
  135.3581  138.7374  161.0447 C   0  0  0  0  0  0  0  0  0  0  0  0
  134.2601  138.1013  161.8123 C   0  0  0  0  0  0  0  0  0  0  0  0
  133.9207  136.7704  161.5753 C   0  0  0  0  0  0  0  0  0  0  0  0
  132.9009  136.1824  162.2956 C   0  0  0  0  0  0  0  0  0  0  0  0
  132.2096  136.9140  163.2444 C   0  0  0  0  0  0  0  0  0  0  0  0
  131.0936  136.2677  164.0241 C   0  0  0  0  0  0  0  0  0  0  0  0
  129.8388  136.4540  163.3175 O   0  0  0  0  0  0  0  0  0  0  0  0
  129.4914  135.5042  162.4268 C   0  0  0  0  0  0  0  0  0  0  0  0
  130.2172  134.5465  162.2456 O   0  0  0  0  0  0  0  0  0  0  0  0
  128.2320  135.6268  161.6732 C   0  0  0  0  0  0  0  0  0  0  0  0
  127.0732  136.2413  162.1066 C   0  0  0  0  0  0  0  0  0  0  0  0
  126.1692  136.1350  161.1201 N   0  0  0  0  0  0  0  0  0  0  0  0
  125.2624  136.4788  161.1431 H   0  0  0  0  0  0  0  0  0  0  0  0
  126.7531  135.4398  160.0553 N   0  0  0  0  0  0  0  0  0  0  0  0
  127.9801  135.1323  160.3732 C   0  0  0  0  0  0  0  0  0  0  0  0
  128.9579  134.3812  159.5066 C   0  0  1  0  0  0  0  0  0  0  0  0
  129.9044  134.2721  160.0361 H   0  0  0  0  0  0  0  0  0  0  0  0
  128.3922  132.9962  159.1797 C   0  0  0  0  0  0  0  0  0  0  0  0
  129.3563  132.2716  158.2358 C   0  0  0  0  0  0  0  0  0  0  0  0
  129.5690  133.1221  156.9816 C   0  0  0  0  0  0  0  0  0  0  0  0
  130.1356  134.4227  157.3583 N   0  0  0  0  0  0  0  0  0  0  0  0
  130.9958  134.2794  157.8658 H   0  0  0  0  0  0  0  0  0  0  0  0
  130.3232  134.9605  156.5254 H   0  0  0  0  0  0  0  0  0  0  0  0
  129.1862  135.1540  158.2058 C   0  0  0  0  0  0  0  0  0  0  0  0
  132.5387  138.2368  163.4801 C   0  0  0  0  0  0  0  0  0  0  0  0
  133.5599  138.8337  162.7692 C   0  0  0  0  0  0  0  0  0  0  0  0
  137.1724  138.0793  164.7015 H   0  0  0  0  0  0  0  0  0  0  0  0
  136.6230  137.1271  163.3016 H   0  0  0  0  0  0  0  0  0  0  0  0
  138.2014  137.9484  163.2551 H   0  0  0  0  0  0  0  0  0  0  0  0
  138.3558  140.2498  161.5003 H   0  0  0  0  0  0  0  0  0  0  0  0
  136.2482  139.4772  157.8689 H   0  0  0  0  0  0  0  0  0  0  0  0
  134.4201  138.4316  159.1369 H   0  0  0  0  0  0  0  0  0  0  0  0
  134.4573  136.1994  160.8320 H   0  0  0  0  0  0  0  0  0  0  0  0
  132.6395  135.1501  162.1154 H   0  0  0  0  0  0  0  0  0  0  0  0
  131.2953  135.2018  164.1314 H   0  0  0  0  0  0  0  0  0  0  0  0
  131.0266  136.7260  165.0106 H   0  0  0  0  0  0  0  0  0  0  0  0
  126.9232  136.7215  163.0623 H   0  0  0  0  0  0  0  0  0  0  0  0
  128.2815  132.4213  160.0991 H   0  0  0  0  0  0  0  0  0  0  0  0
  127.4211  133.1038  158.6966 H   0  0  0  0  0  0  0  0  0  0  0  0
  130.3115  132.1188  158.7382 H   0  0  0  0  0  0  0  0  0  0  0  0
  128.9343  131.3068  157.9549 H   0  0  0  0  0  0  0  0  0  0  0  0
  130.2548  132.6091  156.3073 H   0  0  0  0  0  0  0  0  0  0  0  0
  128.6132  133.2746  156.4802 H   0  0  0  0  0  0  0  0  0  0  0  0
  128.2390  135.2634  157.6777 H   0  0  0  0  0  0  0  0  0  0  0  0
  129.5890  136.1403  158.4357 H   0  0  0  0  0  0  0  0  0  0  0  0
  131.9956  138.8031  164.2222 H   0  0  0  0  0  0  0  0  0  0  0  0
  133.8156  139.8666  162.9538 H   0  0  0  0  0  0  0  0  0  0  0  0
  1  2  1  0
  1 35  1  0
  1 36  1  0
  1 37  1  0
  2  3  1  0
  3  9  2  0
  3  4  1  0
  4  5  2  0
  4 38  1  0
  5  6  1  0
  5  7  1  0
  7  8  2  0
  7 39  1  0
  8  9  1  0
  8 40  1  0
  9 10  1  0
 10 34  1  0
 10 11  2  0
 11 12  1  0
 11 41  1  0
 12 13  2  0
 12 42  1  0
 13 14  1  0
 13 33  1  0
 14 15  1  0
 14 43  1  0
 14 44  1  0
 15 16  1  0
 16 17  2  0
 16 18  1  0
 18 23  1  0
 18 19  2  0
 19 20  1  0
 19 45  1  0
 20 21  1  0
 20 22  1  0
 22 23  2  0
 23 24  1  0
 24 25  1  1
 24 32  1  0
 24 26  1  0
 26 27  1  0
 26 46  1  0
 26 47  1  0
 27 28  1  0
 27 48  1  0
 27 49  1  0
 28 29  1  0
 28 50  1  0
 28 51  1  0
 29 30  1  0
 29 31  1  0
 29 32  1  0
 32 52  1  0
 32 53  1  0
 33 34  2  0
 33 54  1  0
 34 55  1  0
M  CHG  1  29   1
M  END
>  <DOCK_score>  (1) 
-42.35437

>  <SMILES>  (1) 
COc1cc(F)ccc1-c1ccc(COC(=O)c2c[nH]nc2[C@H]2CCC[NH2+]C2)cc1

$$$$
