Nc1ccc(-c2c[nH]c(N[C@@H](c3ccccc3)c3ccccc3-c3cccc4c3CC(O)CC4)[nH+]2)cc1
     RDKit          3D

 68 73  0  0  1  0  0  0  0  0999 V2000
  130.9693  129.7546  153.1320 N   0  0  0  0  0  0  0  0  0  0  0  0
  130.8445  130.5390  154.2811 C   0  0  0  0  0  0  0  0  0  0  0  0
  130.3733  131.8430  154.1833 C   0  0  0  0  0  0  0  0  0  0  0  0
  130.2496  132.6193  155.3162 C   0  0  0  0  0  0  0  0  0  0  0  0
  130.5972  132.0952  156.5604 C   0  0  0  0  0  0  0  0  0  0  0  0
  130.4655  132.9286  157.7806 C   0  0  0  0  0  0  0  0  0  0  0  0
  130.1981  132.4765  159.0306 C   0  0  0  0  0  0  0  0  0  0  0  0
  130.1639  133.5771  159.8539 N   0  0  0  0  0  0  0  0  0  0  0  0
  129.9944  133.5753  160.8089 H   0  0  0  0  0  0  0  0  0  0  0  0
  130.4117  134.6694  159.0811 C   0  0  0  0  0  0  0  0  0  0  0  0
  130.4653  135.9784  159.5287 N   0  0  0  0  0  0  0  0  0  0  0  0
  130.2446  136.2775  160.9458 C   0  0  1  0  0  0  0  0  0  0  0  0
  129.4390  135.6508  161.3282 H   0  0  0  0  0  0  0  0  0  0  0  0
  131.5073  136.0007  161.7203 C   0  0  0  0  0  0  0  0  0  0  0  0
  131.4346  135.6074  163.0434 C   0  0  0  0  0  0  0  0  0  0  0  0
  132.5926  135.3492  163.7525 C   0  0  0  0  0  0  0  0  0  0  0  0
  133.8241  135.4937  163.1413 C   0  0  0  0  0  0  0  0  0  0  0  0
  133.8972  135.8916  161.8195 C   0  0  0  0  0  0  0  0  0  0  0  0
  132.7388  136.1456  161.1091 C   0  0  0  0  0  0  0  0  0  0  0  0
  129.8686  137.7287  161.1002 C   0  0  0  0  0  0  0  0  0  0  0  0
  130.7380  138.7164  160.6832 C   0  0  0  0  0  0  0  0  0  0  0  0
  130.3941  140.0486  160.8244 C   0  0  0  0  0  0  0  0  0  0  0  0
  129.1787  140.3989  161.3844 C   0  0  0  0  0  0  0  0  0  0  0  0
  128.2993  139.4197  161.7995 C   0  0  0  0  0  0  0  0  0  0  0  0
  128.6430  138.0758  161.6646 C   0  0  0  0  0  0  0  0  0  0  0  0
  127.7043  137.0184  162.1148 C   0  0  0  0  0  0  0  0  0  0  0  0
  127.2187  136.0890  161.2011 C   0  0  0  0  0  0  0  0  0  0  0  0
  126.3469  135.1067  161.6250 C   0  0  0  0  0  0  0  0  0  0  0  0
  125.9608  135.0537  162.9492 C   0  0  0  0  0  0  0  0  0  0  0  0
  126.4392  135.9808  163.8677 C   0  0  0  0  0  0  0  0  0  0  0  0
  127.3117  136.9605  163.4568 C   0  0  0  0  0  0  0  0  0  0  0  0
  127.8760  137.9920  164.3981 C   0  0  0  0  0  0  0  0  0  0  0  0
  127.0420  138.0674  165.6755 C   0  0  2  0  0  0  0  0  0  0  0  0
  127.7083  138.8868  166.6379 O   0  0  0  0  0  0  0  0  0  0  0  0
  126.8780  136.6476  166.2310 C   0  0  0  0  0  0  0  0  0  0  0  0
  125.9618  135.8659  165.2920 C   0  0  0  0  0  0  0  0  0  0  0  0
  130.5859  134.2784  157.8421 N   0  0  0  0  0  0  0  0  0  0  0  0
  130.7729  134.8612  157.0896 H   0  0  0  0  0  0  0  0  0  0  0  0
  131.0741  130.7888  156.6554 C   0  0  0  0  0  0  0  0  0  0  0  0
  131.1911  130.0143  155.5205 C   0  0  0  0  0  0  0  0  0  0  0  0
  130.7272  130.1200  152.2667 H   0  0  0  0  0  0  0  0  0  0  0  0
  131.2980  128.8445  153.1993 H   0  0  0  0  0  0  0  0  0  0  0  0
  130.1041  132.2485  153.2192 H   0  0  0  0  0  0  0  0  0  0  0  0
  129.8834  133.6324  155.2398 H   0  0  0  0  0  0  0  0  0  0  0  0
  130.0424  131.4487  159.3235 H   0  0  0  0  0  0  0  0  0  0  0  0
  130.6490  136.6974  158.9042 H   0  0  0  0  0  0  0  0  0  0  0  0
  130.4724  135.4985  163.5221 H   0  0  0  0  0  0  0  0  0  0  0  0
  132.5354  135.0379  164.7851 H   0  0  0  0  0  0  0  0  0  0  0  0
  134.7289  135.2952  163.6964 H   0  0  0  0  0  0  0  0  0  0  0  0
  134.8592  136.0044  161.3419 H   0  0  0  0  0  0  0  0  0  0  0  0
  132.7959  136.4569  160.0765 H   0  0  0  0  0  0  0  0  0  0  0  0
  131.6883  138.4485  160.2455 H   0  0  0  0  0  0  0  0  0  0  0  0
  131.0772  140.8183  160.4964 H   0  0  0  0  0  0  0  0  0  0  0  0
  128.9155  141.4408  161.4929 H   0  0  0  0  0  0  0  0  0  0  0  0
  127.3488  139.6941  162.2322 H   0  0  0  0  0  0  0  0  0  0  0  0
  127.5219  136.1358  160.1657 H   0  0  0  0  0  0  0  0  0  0  0  0
  125.9668  134.3806  160.9214 H   0  0  0  0  0  0  0  0  0  0  0  0
  125.2787  134.2826  163.2756 H   0  0  0  0  0  0  0  0  0  0  0  0
  127.8721  138.9659  163.9084 H   0  0  0  0  0  0  0  0  0  0  0  0
  128.9007  137.7223  164.6535 H   0  0  0  0  0  0  0  0  0  0  0  0
  126.0622  138.4887  165.4499 H   0  0  0  0  0  0  0  0  0  0  0  0
  127.8519  139.7977  166.3471 H   0  0  0  0  0  0  0  0  0  0  0  0
  127.8513  136.1596  166.2842 H   0  0  0  0  0  0  0  0  0  0  0  0
  126.4340  136.6917  167.2255 H   0  0  0  0  0  0  0  0  0  0  0  0
  124.9496  136.2638  165.3650 H   0  0  0  0  0  0  0  0  0  0  0  0
  125.9569  134.8164  165.5860 H   0  0  0  0  0  0  0  0  0  0  0  0
  131.3478  130.3820  157.6178 H   0  0  0  0  0  0  0  0  0  0  0  0
  131.5566  129.0008  155.5942 H   0  0  0  0  0  0  0  0  0  0  0  0
  1  2  1  0
  1 41  1  0
  1 42  1  0
  2 40  2  0
  2  3  1  0
  3  4  2  0
  3 43  1  0
  4  5  1  0
  4 44  1  0
  5  6  1  0
  5 39  2  0
  6 37  1  0
  6  7  2  0
  7  8  1  0
  7 45  1  0
  8  9  1  0
  8 10  1  0
 10 11  1  0
 10 37  2  0
 11 12  1  0
 11 46  1  0
 12 13  1  1
 12 14  1  0
 12 20  1  0
 14 19  1  0
 14 15  2  0
 15 16  1  0
 15 47  1  0
 16 17  2  0
 16 48  1  0
 17 18  1  0
 17 49  1  0
 18 19  2  0
 18 50  1  0
 19 51  1  0
 20 25  1  0
 20 21  2  0
 21 22  1  0
 21 52  1  0
 22 23  2  0
 22 53  1  0
 23 24  1  0
 23 54  1  0
 24 25  2  0
 24 55  1  0
 25 26  1  0
 26 31  1  0
 26 27  2  0
 27 28  1  0
 27 56  1  0
 28 29  2  0
 28 57  1  0
 29 30  1  0
 29 58  1  0
 30 36  1  0
 30 31  2  0
 31 32  1  0
 32 33  1  0
 32 59  1  0
 32 60  1  0
 33 34  1  0
 33 35  1  0
 33 61  1  6
 34 62  1  0
 35 36  1  0
 35 63  1  0
 35 64  1  0
 36 65  1  0
 36 66  1  0
 37 38  1  0
 39 40  1  0
 39 67  1  0
 40 68  1  0
M  CHG  1  37   1
M  END
>  <DOCK_score>  (1) 
-56.99781

>  <SMILES>  (1) 
Nc1ccc(-c2c[nH]c(N[C@@H](c3ccccc3)c3ccccc3-c3cccc4c3CC(O)CC4)[nH+]2)cc1

$$$$
