O=C1CCC(NC(NC2CC2)=[NH+][C@H]2COc3cc(-c4ccccc4)ccc3C2)CN1
     RDKit          3D

 59 63  0  0  1  0  0  0  0  0999 V2000
  123.8506  133.9639  161.8387 O   0  0  0  0  0  0  0  0  0  0  0  0
  125.0103  134.1619  161.5443 C   0  0  0  0  0  0  0  0  0  0  0  0
  125.8530  132.9849  161.1443 C   0  0  0  0  0  0  0  0  0  0  0  0
  127.3365  133.3504  161.2388 C   0  0  0  0  0  0  0  0  0  0  0  0
  127.5532  134.6871  160.5194 C   0  0  2  0  0  0  0  0  0  0  0  0
  128.9866  134.9790  160.4390 N   0  0  0  0  0  0  0  0  0  0  0  0
  129.7170  134.5450  159.3579 C   0  0  0  0  0  0  0  0  0  0  0  0
  129.1019  133.8372  158.3525 N   0  0  0  0  0  0  0  0  0  0  0  0
  129.8799  133.3747  157.2005 C   0  0  0  0  0  0  0  0  0  0  0  0
  129.3138  132.2084  156.3880 C   0  0  0  0  0  0  0  0  0  0  0  0
  130.5277  131.9918  157.2948 C   0  0  0  0  0  0  0  0  0  0  0  0
  130.9921  134.8047  159.2864 N   0  0  0  0  0  0  0  0  0  0  0  0
  131.4177  134.9115  158.4213 H   0  0  0  0  0  0  0  0  0  0  0  0
  131.7829  134.9351  160.5128 C   0  0  1  0  0  0  0  0  0  0  0  0
  131.1415  134.7844  161.3812 H   0  0  0  0  0  0  0  0  0  0  0  0
  132.9093  133.8937  160.5150 C   0  0  0  0  0  0  0  0  0  0  0  0
  133.5954  133.9760  161.7648 O   0  0  0  0  0  0  0  0  0  0  0  0
  133.9869  135.2038  162.1955 C   0  0  0  0  0  0  0  0  0  0  0  0
  134.9468  135.2772  163.1974 C   0  0  0  0  0  0  0  0  0  0  0  0
  135.3705  136.5152  163.6687 C   0  0  0  0  0  0  0  0  0  0  0  0
  136.3956  136.5943  164.7387 C   0  0  0  0  0  0  0  0  0  0  0  0
  136.3963  137.6667  165.6284 C   0  0  0  0  0  0  0  0  0  0  0  0
  137.3492  137.7327  166.6247 C   0  0  0  0  0  0  0  0  0  0  0  0
  138.3088  136.7426  166.7344 C   0  0  0  0  0  0  0  0  0  0  0  0
  138.3159  135.6786  165.8506 C   0  0  0  0  0  0  0  0  0  0  0  0
  137.3645  135.5996  164.8537 C   0  0  0  0  0  0  0  0  0  0  0  0
  134.8274  137.6813  163.1318 C   0  0  0  0  0  0  0  0  0  0  0  0
  133.8762  137.6006  162.1371 C   0  0  0  0  0  0  0  0  0  0  0  0
  133.4545  136.3672  161.6653 C   0  0  0  0  0  0  0  0  0  0  0  0
  132.4148  136.3279  160.5736 C   0  0  0  0  0  0  0  0  0  0  0  0
  126.8488  135.7893  161.3116 C   0  0  0  0  0  0  0  0  0  0  0  0
  125.4691  135.4131  161.5931 N   0  0  0  0  0  0  0  0  0  0  0  0
  125.6148  132.7007  160.1194 H   0  0  0  0  0  0  0  0  0  0  0  0
  125.6432  132.1479  161.8102 H   0  0  0  0  0  0  0  0  0  0  0  0
  127.9364  132.5753  160.7618 H   0  0  0  0  0  0  0  0  0  0  0  0
  127.6254  133.4458  162.2856 H   0  0  0  0  0  0  0  0  0  0  0  0
  127.1339  134.6339  159.5147 H   0  0  0  0  0  0  0  0  0  0  0  0
  129.4204  135.4783  161.1485 H   0  0  0  0  0  0  0  0  0  0  0  0
  128.1528  133.6441  158.4059 H   0  0  0  0  0  0  0  0  0  0  0  0
  130.4230  134.1489  156.6585 H   0  0  0  0  0  0  0  0  0  0  0  0
  128.3624  131.7852  156.7105 H   0  0  0  0  0  0  0  0  0  0  0  0
  129.4847  132.2153  155.3116 H   0  0  0  0  0  0  0  0  0  0  0  0
  131.4969  131.8562  156.8146 H   0  0  0  0  0  0  0  0  0  0  0  0
  130.3752  131.4262  158.2141 H   0  0  0  0  0  0  0  0  0  0  0  0
  132.4875  132.8963  160.3920 H   0  0  0  0  0  0  0  0  0  0  0  0
  133.6036  134.1021  159.7010 H   0  0  0  0  0  0  0  0  0  0  0  0
  135.3651  134.3713  163.6106 H   0  0  0  0  0  0  0  0  0  0  0  0
  135.6502  138.4426  165.5409 H   0  0  0  0  0  0  0  0  0  0  0  0
  137.3483  138.5615  167.3172 H   0  0  0  0  0  0  0  0  0  0  0  0
  139.0548  136.8002  167.5131 H   0  0  0  0  0  0  0  0  0  0  0  0
  139.0676  134.9083  165.9404 H   0  0  0  0  0  0  0  0  0  0  0  0
  137.3708  134.7683  164.1643 H   0  0  0  0  0  0  0  0  0  0  0  0
  135.1508  138.6458  163.4943 H   0  0  0  0  0  0  0  0  0  0  0  0
  133.4565  138.5051  161.7223 H   0  0  0  0  0  0  0  0  0  0  0  0
  132.8848  136.5550  159.6167 H   0  0  0  0  0  0  0  0  0  0  0  0
  131.6420  137.0678  160.7819 H   0  0  0  0  0  0  0  0  0  0  0  0
  126.8595  136.7124  160.7321 H   0  0  0  0  0  0  0  0  0  0  0  0
  127.3769  135.9513  162.2513 H   0  0  0  0  0  0  0  0  0  0  0  0
  124.8465  136.1164  161.8348 H   0  0  0  0  0  0  0  0  0  0  0  0
  1  2  2  0
  2 32  1  0
  2  3  1  0
  3  4  1  0
  3 33  1  0
  3 34  1  0
  4  5  1  0
  4 35  1  0
  4 36  1  0
  5  6  1  0
  5 31  1  0
  5 37  1  6
  6 38  1  0
  7  6  1  0
  7  8  1  0
  7 12  2  0
  8  9  1  0
  8 39  1  0
  9 11  1  0
  9 10  1  0
  9 40  1  0
 10 11  1  0
 10 41  1  0
 10 42  1  0
 11 43  1  0
 11 44  1  0
 12 13  1  0
 12 14  1  0
 14 15  1  1
 14 30  1  0
 14 16  1  0
 16 17  1  0
 16 45  1  0
 16 46  1  0
 17 18  1  0
 18 29  2  0
 18 19  1  0
 19 20  2  0
 19 47  1  0
 20 21  1  0
 20 27  1  0
 21 26  1  0
 21 22  2  0
 22 23  1  0
 22 48  1  0
 23 24  2  0
 23 49  1  0
 24 25  1  0
 24 50  1  0
 25 26  2  0
 25 51  1  0
 26 52  1  0
 27 28  2  0
 27 53  1  0
 28 29  1  0
 28 54  1  0
 29 30  1  0
 30 55  1  0
 30 56  1  0
 31 32  1  0
 31 57  1  0
 31 58  1  0
 32 59  1  0
M  CHG  1  12   1
M  END
>  <DOCK_score>  (1) 
-52.031525

>  <SMILES>  (1) 
O=C1CCC(NC(NC2CC2)=[NH+][C@H]2COc3cc(-c4ccccc4)ccc3C2)CN1

$$$$
