CC1(c2ccc(N[C@@H]3C=CCC3)cc2)CC[NH+](C[C@@H](O)c2ccccc2)CC1
     RDKit          3D

 61 64  0  0  1  0  0  0  0  0999 V2000
  129.6749  132.0809  159.2239 C   0  0  0  0  0  0  0  0  0  0  0  0
  130.3035  132.9633  158.1435 C   0  0  2  0  0  0  0  0  0  0  0  0
  130.4789  132.1631  156.8786 C   0  0  0  0  0  0  0  0  0  0  0  0
  131.2686  131.0281  156.8841 C   0  0  0  0  0  0  0  0  0  0  0  0
  131.4269  130.2894  155.7280 C   0  0  0  0  0  0  0  0  0  0  0  0
  130.8009  130.6941  154.5559 C   0  0  0  0  0  0  0  0  0  0  0  0
  130.9638  129.9529  153.3833 N   0  0  0  0  0  0  0  0  0  0  0  0
  130.3029  130.3814  152.1481 C   0  0  2  0  0  0  0  0  0  0  0  0
  130.3481  131.4661  152.0507 H   0  0  0  0  0  0  0  0  0  0  0  0
  128.8679  129.9082  152.1275 C   0  0  0  0  0  0  0  0  0  0  0  0
  128.7282  128.8647  151.3560 C   0  0  0  0  0  0  0  0  0  0  0  0
  130.0467  128.4680  150.7334 C   0  0  0  0  0  0  0  0  0  0  0  0
  130.9583  129.7027  150.9230 C   0  0  0  0  0  0  0  0  0  0  0  0
  130.0128  131.8381  154.5524 C   0  0  0  0  0  0  0  0  0  0  0  0
  129.8543  132.5690  155.7135 C   0  0  0  0  0  0  0  0  0  0  0  0
  131.6675  133.4675  158.6238 C   0  0  0  0  0  0  0  0  0  0  0  0
  131.4739  134.3429  159.8638 C   0  0  0  0  0  0  0  0  0  0  0  0
  130.6172  135.4872  159.5304 N   0  0  2  0  0  0  0  0  0  0  0  0
  131.0278  136.0020  158.7659 H   0  0  0  0  0  0  0  0  0  0  0  0
  130.4978  136.3653  160.7020 C   0  0  0  0  0  0  0  0  0  0  0  0
  131.7452  137.2447  160.8093 C   0  0  1  0  0  0  0  0  0  0  0  0
  132.6280  136.6549  160.5626 H   0  0  0  0  0  0  0  0  0  0  0  0
  131.6351  138.3408  159.8990 O   0  0  0  0  0  0  0  0  0  0  0  0
  131.8695  137.7707  162.2160 C   0  0  0  0  0  0  0  0  0  0  0  0
  133.1179  138.0383  162.7462 C   0  0  0  0  0  0  0  0  0  0  0  0
  133.2319  138.5210  164.0363 C   0  0  0  0  0  0  0  0  0  0  0  0
  132.0976  138.7362  164.7966 C   0  0  0  0  0  0  0  0  0  0  0  0
  130.8492  138.4692  164.2664 C   0  0  0  0  0  0  0  0  0  0  0  0
  130.7352  137.9873  162.9758 C   0  0  0  0  0  0  0  0  0  0  0  0
  129.2846  135.0125  159.1388 C   0  0  0  0  0  0  0  0  0  0  0  0
  129.3938  134.1644  157.8697 C   0  0  0  0  0  0  0  0  0  0  0  0
  129.5460  132.6615  160.1375 H   0  0  0  0  0  0  0  0  0  0  0  0
  128.7042  131.7227  158.8812 H   0  0  0  0  0  0  0  0  0  0  0  0
  130.3266  131.2303  159.4229 H   0  0  0  0  0  0  0  0  0  0  0  0
  131.7589  130.7166  157.7946 H   0  0  0  0  0  0  0  0  0  0  0  0
  132.0402  129.4004  155.7341 H   0  0  0  0  0  0  0  0  0  0  0  0
  131.5145  129.1545  153.3868 H   0  0  0  0  0  0  0  0  0  0  0  0
  128.0637  130.3723  152.6791 H   0  0  0  0  0  0  0  0  0  0  0  0
  127.7930  128.3523  151.1848 H   0  0  0  0  0  0  0  0  0  0  0  0
  129.9161  128.2517  149.6730 H   0  0  0  0  0  0  0  0  0  0  0  0
  130.4664  127.6035  151.2475 H   0  0  0  0  0  0  0  0  0  0  0  0
  130.9223  130.3535  150.0494 H   0  0  0  0  0  0  0  0  0  0  0  0
  131.9828  129.4031  151.1432 H   0  0  0  0  0  0  0  0  0  0  0  0
  129.5244  132.1554  153.6429 H   0  0  0  0  0  0  0  0  0  0  0  0
  129.2419  133.4586  155.7113 H   0  0  0  0  0  0  0  0  0  0  0  0
  132.1375  134.0537  157.8340 H   0  0  0  0  0  0  0  0  0  0  0  0
  132.3023  132.6175  158.8737 H   0  0  0  0  0  0  0  0  0  0  0  0
  132.4431  134.7033  160.2084 H   0  0  0  0  0  0  0  0  0  0  0  0
  131.0042  133.7556  160.6527 H   0  0  0  0  0  0  0  0  0  0  0  0
  130.4024  135.7588  161.6025 H   0  0  0  0  0  0  0  0  0  0  0  0
  129.6161  136.9971  160.5942 H   0  0  0  0  0  0  0  0  0  0  0  0
  131.5516  138.0760  158.9728 H   0  0  0  0  0  0  0  0  0  0  0  0
  134.0038  137.8744  162.1507 H   0  0  0  0  0  0  0  0  0  0  0  0
  134.2072  138.7296  164.4507 H   0  0  0  0  0  0  0  0  0  0  0  0
  132.1868  139.1128  165.8049 H   0  0  0  0  0  0  0  0  0  0  0  0
  129.9631  138.6367  164.8604 H   0  0  0  0  0  0  0  0  0  0  0  0
  129.7599  137.7784  162.5616 H   0  0  0  0  0  0  0  0  0  0  0  0
  128.8628  134.4106  159.9437 H   0  0  0  0  0  0  0  0  0  0  0  0
  128.6364  135.8677  158.9478 H   0  0  0  0  0  0  0  0  0  0  0  0
  129.8165  134.7651  157.0644 H   0  0  0  0  0  0  0  0  0  0  0  0
  128.4034  133.8124  157.5809 H   0  0  0  0  0  0  0  0  0  0  0  0
  1 32  1  0
  1 33  1  0
  1 34  1  0
  2  1  1  1
  2 31  1  0
  2  3  1  0
  2 16  1  0
  3 15  1  0
  3  4  2  0
  4  5  1  0
  4 35  1  0
  5  6  2  0
  5 36  1  0
  6  7  1  0
  6 14  1  0
  7  8  1  0
  7 37  1  0
  8  9  1  6
  8 13  1  0
  8 10  1  0
 10 11  2  0
 10 38  1  0
 11 12  1  0
 11 39  1  0
 12 13  1  0
 12 40  1  0
 12 41  1  0
 13 42  1  0
 13 43  1  0
 14 15  2  0
 14 44  1  0
 15 45  1  0
 16 17  1  0
 16 46  1  0
 16 47  1  0
 17 18  1  0
 17 48  1  0
 17 49  1  0
 18 19  1  6
 18 20  1  0
 18 30  1  0
 20 21  1  0
 20 50  1  0
 20 51  1  0
 21 22  1  6
 21 23  1  0
 21 24  1  0
 23 52  1  0
 24 29  1  0
 24 25  2  0
 25 26  1  0
 25 53  1  0
 26 27  2  0
 26 54  1  0
 27 28  1  0
 27 55  1  0
 28 29  2  0
 28 56  1  0
 29 57  1  0
 30 31  1  0
 30 58  1  0
 30 59  1  0
 31 60  1  0
 31 61  1  0
M  CHG  1  18   1
M  END
>  <DOCK_score>  (1) 
-56.05611

>  <SMILES>  (1) 
CC1(c2ccc(N[C@@H]3C=CCC3)cc2)CC[NH+](C[C@@H](O)c2ccccc2)CC1

$$$$
