O=C(O[C@H]1COc2ccccc2C1)c1c[nH]nc1C1CCC[NH2+]C1
     RDKit          3D

 46 49  0  0  1  0  0  0  0  0999 V2000
  129.7208  138.3991  162.0897 O   0  0  0  0  0  0  0  0  0  0  0  0
  129.7952  137.5172  161.2568 C   0  0  0  0  0  0  0  0  0  0  0  0
  130.9757  137.2457  160.6664 O   0  0  0  0  0  0  0  0  0  0  0  0
  132.1161  138.0466  161.0741 C   0  0  1  0  0  0  0  0  0  0  0  0
  131.7799  139.0398  161.3720 H   0  0  0  0  0  0  0  0  0  0  0  0
  132.8306  137.3682  162.2499 C   0  0  0  0  0  0  0  0  0  0  0  0
  133.8821  138.2266  162.6943 O   0  0  0  0  0  0  0  0  0  0  0  0
  134.7287  138.7302  161.7590 C   0  0  0  0  0  0  0  0  0  0  0  0
  135.9462  139.2565  162.1799 C   0  0  0  0  0  0  0  0  0  0  0  0
  136.8308  139.7816  161.2605 C   0  0  0  0  0  0  0  0  0  0  0  0
  136.5077  139.7859  159.9158 C   0  0  0  0  0  0  0  0  0  0  0  0
  135.3011  139.2629  159.4942 C   0  0  0  0  0  0  0  0  0  0  0  0
  134.4099  138.7327  160.4125 C   0  0  0  0  0  0  0  0  0  0  0  0
  133.1061  138.1638  159.9124 C   0  0  0  0  0  0  0  0  0  0  0  0
  128.5949  136.7450  160.8927 C   0  0  0  0  0  0  0  0  0  0  0  0
  127.3246  136.9120  161.4086 C   0  0  0  0  0  0  0  0  0  0  0  0
  126.5285  136.0084  160.8157 N   0  0  0  0  0  0  0  0  0  0  0  0
  125.5805  135.8910  160.9846 H   0  0  0  0  0  0  0  0  0  0  0  0
  127.2960  135.2646  159.9126 N   0  0  0  0  0  0  0  0  0  0  0  0
  128.5264  135.6962  159.9476 C   0  0  0  0  0  0  0  0  0  0  0  0
  129.6749  135.1654  159.1288 C   0  0  1  0  0  0  0  0  0  0  0  0
  130.3611  134.0257  159.8874 C   0  0  0  0  0  0  0  0  0  0  0  0
  131.4758  133.4430  159.0141 C   0  0  0  0  0  0  0  0  0  0  0  0
  130.8829  132.9786  157.6820 C   0  0  0  0  0  0  0  0  0  0  0  0
  130.2651  134.1182  156.9935 N   0  0  0  0  0  0  0  0  0  0  0  0
  129.9225  133.8201  156.0926 H   0  0  0  0  0  0  0  0  0  0  0  0
  130.9526  134.8457  156.8659 H   0  0  0  0  0  0  0  0  0  0  0  0
  129.1485  134.6372  157.7927 C   0  0  0  0  0  0  0  0  0  0  0  0
  132.1237  137.2026  163.0629 H   0  0  0  0  0  0  0  0  0  0  0  0
  133.2474  136.4147  161.9255 H   0  0  0  0  0  0  0  0  0  0  0  0
  136.1996  139.2538  163.2298 H   0  0  0  0  0  0  0  0  0  0  0  0
  137.7750  140.1886  161.5906 H   0  0  0  0  0  0  0  0  0  0  0  0
  137.1988  140.1985  159.1957 H   0  0  0  0  0  0  0  0  0  0  0  0
  135.0510  139.2678  158.4436 H   0  0  0  0  0  0  0  0  0  0  0  0
  133.2818  137.1768  159.4846 H   0  0  0  0  0  0  0  0  0  0  0  0
  132.6921  138.8214  159.1480 H   0  0  0  0  0  0  0  0  0  0  0  0
  127.0272  137.6344  162.1543 H   0  0  0  0  0  0  0  0  0  0  0  0
  130.3925  135.9654  158.9467 H   0  0  0  0  0  0  0  0  0  0  0  0
  130.7872  134.4096  160.8144 H   0  0  0  0  0  0  0  0  0  0  0  0
  129.6319  133.2481  160.1146 H   0  0  0  0  0  0  0  0  0  0  0  0
  131.9325  132.5950  159.5245 H   0  0  0  0  0  0  0  0  0  0  0  0
  132.2315  134.2067  158.8295 H   0  0  0  0  0  0  0  0  0  0  0  0
  130.1284  132.2143  157.8676 H   0  0  0  0  0  0  0  0  0  0  0  0
  131.6743  132.5633  157.0581 H   0  0  0  0  0  0  0  0  0  0  0  0
  128.4309  133.8375  157.9759 H   0  0  0  0  0  0  0  0  0  0  0  0
  128.6592  135.4461  157.2501 H   0  0  0  0  0  0  0  0  0  0  0  0
  1  2  2  0
  2  3  1  0
  2 15  1  0
  3  4  1  0
  4  5  1  1
  4 14  1  0
  4  6  1  0
  6  7  1  0
  6 29  1  0
  6 30  1  0
  7  8  1  0
  8 13  2  0
  8  9  1  0
  9 10  2  0
  9 31  1  0
 10 11  1  0
 10 32  1  0
 11 12  2  0
 11 33  1  0
 12 13  1  0
 12 34  1  0
 13 14  1  0
 14 35  1  0
 14 36  1  0
 15 20  1  0
 15 16  2  0
 16 17  1  0
 16 37  1  0
 17 18  1  0
 17 19  1  0
 19 20  2  0
 20 21  1  0
 21 28  1  0
 21 22  1  0
 21 38  1  6
 22 23  1  0
 22 39  1  0
 22 40  1  0
 23 24  1  0
 23 41  1  0
 23 42  1  0
 24 25  1  0
 24 43  1  0
 24 44  1  0
 25 26  1  0
 25 27  1  0
 25 28  1  0
 28 45  1  0
 28 46  1  0
M  CHG  1  25   1
M  END
>  <DOCK_score>  (1) 
-41.959202

>  <SMILES>  (1) 
O=C(O[C@H]1COc2ccccc2C1)c1c[nH]nc1C1CCC[NH2+]C1

$$$$
