Oc1ccccc1[C@@H](Nc1[nH]cc(-c2ccc(C3=CCC=CC3)cc2)[nH+]1)c1ccccc1
     RDKit          3D

 58 62  0  0  1  0  0  0  0  0999 V2000
  130.1619  135.5928  164.2445 O   0  0  0  0  0  0  0  0  0  0  0  0
  129.1609  135.7949  163.3478 C   0  0  0  0  0  0  0  0  0  0  0  0
  127.8430  135.5602  163.7128 C   0  0  0  0  0  0  0  0  0  0  0  0
  126.8274  135.7668  162.8000 C   0  0  0  0  0  0  0  0  0  0  0  0
  127.1232  136.2070  161.5227 C   0  0  0  0  0  0  0  0  0  0  0  0
  128.4354  136.4416  161.1565 C   0  0  0  0  0  0  0  0  0  0  0  0
  129.4550  136.2362  162.0661 C   0  0  0  0  0  0  0  0  0  0  0  0
  130.8852  136.4922  161.6662 C   0  0  1  0  0  0  0  0  0  0  0  0
  131.5433  135.8270  162.2253 H   0  0  0  0  0  0  0  0  0  0  0  0
  131.0433  136.2428  160.2313 N   0  0  0  0  0  0  0  0  0  0  0  0
  130.7703  134.9887  159.7125 C   0  0  0  0  0  0  0  0  0  0  0  0
  130.3448  133.9111  160.4266 N   0  0  0  0  0  0  0  0  0  0  0  0
  130.1805  133.8836  161.3822 H   0  0  0  0  0  0  0  0  0  0  0  0
  130.1915  132.8694  159.5449 C   0  0  0  0  0  0  0  0  0  0  0  0
  130.5277  133.3399  158.3174 C   0  0  0  0  0  0  0  0  0  0  0  0
  130.5147  132.5667  157.0529 C   0  0  0  0  0  0  0  0  0  0  0  0
  130.2564  133.2125  155.8434 C   0  0  0  0  0  0  0  0  0  0  0  0
  130.2488  132.4958  154.6678 C   0  0  0  0  0  0  0  0  0  0  0  0
  130.4892  131.1202  154.6876 C   0  0  0  0  0  0  0  0  0  0  0  0
  130.4766  130.3505  153.4271 C   0  0  0  0  0  0  0  0  0  0  0  0
  129.6981  130.7558  152.4470 C   0  0  0  0  0  0  0  0  0  0  0  0
  129.6194  130.0436  151.1301 C   0  0  0  0  0  0  0  0  0  0  0  0
  130.1172  128.6347  151.2466 C   0  0  0  0  0  0  0  0  0  0  0  0
  130.8810  128.2320  152.2150 C   0  0  0  0  0  0  0  0  0  0  0  0
  131.3458  129.1337  153.3184 C   0  0  0  0  0  0  0  0  0  0  0  0
  130.7426  130.4735  155.8994 C   0  0  0  0  0  0  0  0  0  0  0  0
  130.7549  131.1925  157.0735 C   0  0  0  0  0  0  0  0  0  0  0  0
  130.8739  134.6452  158.4520 N   0  0  0  0  0  0  0  0  0  0  0  0
  131.1552  135.2298  157.7309 H   0  0  0  0  0  0  0  0  0  0  0  0
  131.2431  137.9243  161.9695 C   0  0  0  0  0  0  0  0  0  0  0  0
  132.5445  138.2573  162.2957 C   0  0  0  0  0  0  0  0  0  0  0  0
  132.8736  139.5716  162.5703 C   0  0  0  0  0  0  0  0  0  0  0  0
  131.8987  140.5518  162.5267 C   0  0  0  0  0  0  0  0  0  0  0  0
  130.5972  140.2177  162.2055 C   0  0  0  0  0  0  0  0  0  0  0  0
  130.2689  138.9041  161.9272 C   0  0  0  0  0  0  0  0  0  0  0  0
  129.8588  135.2855  165.1098 H   0  0  0  0  0  0  0  0  0  0  0  0
  127.6115  135.2165  164.7102 H   0  0  0  0  0  0  0  0  0  0  0  0
  125.8011  135.5878  163.0846 H   0  0  0  0  0  0  0  0  0  0  0  0
  126.3277  136.3677  160.8101 H   0  0  0  0  0  0  0  0  0  0  0  0
  128.6639  136.7852  160.1584 H   0  0  0  0  0  0  0  0  0  0  0  0
  131.3391  136.9565  159.6446 H   0  0  0  0  0  0  0  0  0  0  0  0
  129.8658  131.8675  159.7829 H   0  0  0  0  0  0  0  0  0  0  0  0
  130.0660  134.2755  155.8288 H   0  0  0  0  0  0  0  0  0  0  0  0
  130.0526  132.9966  153.7312 H   0  0  0  0  0  0  0  0  0  0  0  0
  129.0944  131.6389  152.5957 H   0  0  0  0  0  0  0  0  0  0  0  0
  130.2234  130.5764  150.3957 H   0  0  0  0  0  0  0  0  0  0  0  0
  128.5817  130.0294  150.7964 H   0  0  0  0  0  0  0  0  0  0  0  0
  129.8264  127.9215  150.4895 H   0  0  0  0  0  0  0  0  0  0  0  0
  131.1968  127.1993  152.2264 H   0  0  0  0  0  0  0  0  0  0  0  0
  132.3712  129.4444  153.1178 H   0  0  0  0  0  0  0  0  0  0  0  0
  131.3161  128.5877  154.2612 H   0  0  0  0  0  0  0  0  0  0  0  0
  130.9281  129.4097  155.9155 H   0  0  0  0  0  0  0  0  0  0  0  0
  130.9509  130.6926  158.0105 H   0  0  0  0  0  0  0  0  0  0  0  0
  133.3048  137.4911  162.3332 H   0  0  0  0  0  0  0  0  0  0  0  0
  133.8910  139.8323  162.8218 H   0  0  0  0  0  0  0  0  0  0  0  0
  132.1559  141.5777  162.7447 H   0  0  0  0  0  0  0  0  0  0  0  0
  129.8361  140.9833  162.1720 H   0  0  0  0  0  0  0  0  0  0  0  0
  129.2513  138.6433  161.6764 H   0  0  0  0  0  0  0  0  0  0  0  0
  1  2  1  0
  1 36  1  0
  2  7  2  0
  2  3  1  0
  3  4  2  0
  3 37  1  0
  4  5  1  0
  4 38  1  0
  5  6  2  0
  5 39  1  0
  6  7  1  0
  6 40  1  0
  7  8  1  0
  8  9  1  1
  8 10  1  0
  8 30  1  0
 10 41  1  0
 11 10  1  0
 11 28  2  0
 11 12  1  0
 12 13  1  0
 12 14  1  0
 14 15  2  0
 14 42  1  0
 15 16  1  0
 15 28  1  0
 16 27  1  0
 16 17  2  0
 17 18  1  0
 17 43  1  0
 18 19  2  0
 18 44  1  0
 19 20  1  0
 19 26  1  0
 20 25  1  0
 20 21  2  0
 21 22  1  0
 21 45  1  0
 22 23  1  0
 22 46  1  0
 22 47  1  0
 23 24  2  0
 23 48  1  0
 24 25  1  0
 24 49  1  0
 25 50  1  0
 25 51  1  0
 26 27  2  0
 26 52  1  0
 27 53  1  0
 28 29  1  0
 30 35  1  0
 30 31  2  0
 31 32  1  0
 31 54  1  0
 32 33  2  0
 32 55  1  0
 33 34  1  0
 33 56  1  0
 34 35  2  0
 34 57  1  0
 35 58  1  0
M  CHG  1  28   1
M  END
>  <DOCK_score>  (1) 
-55.960003

>  <SMILES>  (1) 
Oc1ccccc1[C@@H](Nc1[nH]cc(-c2ccc(C3=CCC=CC3)cc2)[nH+]1)c1ccccc1

$$$$
