Cc1nn(-c2ccc(CO)cc2)cc1C[NH2+]Cc1cn(-c2ccccc2)nc1-c1ccccc1
     RDKit          3D

 62 66  0  0  0  0  0  0  0  0999 V2000
  129.1159  133.3543  160.7633 C   0  0  0  0  0  0  0  0  0  0  0  0
  129.5108  133.3965  159.3096 C   0  0  0  0  0  0  0  0  0  0  0  0
  129.8948  132.3736  158.5891 N   0  0  0  0  0  0  0  0  0  0  0  0
  130.1765  132.8306  157.2951 N   0  0  0  0  0  0  0  0  0  0  0  0
  130.6216  132.0463  156.2218 C   0  0  0  0  0  0  0  0  0  0  0  0
  130.8581  132.6303  154.9846 C   0  0  0  0  0  0  0  0  0  0  0  0
  131.3022  131.8559  153.9306 C   0  0  0  0  0  0  0  0  0  0  0  0
  131.5004  130.4984  154.1036 C   0  0  0  0  0  0  0  0  0  0  0  0
  131.9794  129.6554  152.9500 C   0  0  0  0  0  0  0  0  0  0  0  0
  131.2446  129.9970  151.7729 O   0  0  0  0  0  0  0  0  0  0  0  0
  131.2601  129.9129  155.3331 C   0  0  0  0  0  0  0  0  0  0  0  0
  130.8214  130.6830  156.3924 C   0  0  0  0  0  0  0  0  0  0  0  0
  129.9420  134.1620  157.2644 C   0  0  0  0  0  0  0  0  0  0  0  0
  129.5263  134.5353  158.4968 C   0  0  0  0  0  0  0  0  0  0  0  0
  129.1521  135.9323  158.9209 C   0  0  0  0  0  0  0  0  0  0  0  0
  130.3449  136.6278  159.4223 N   0  0  0  0  0  0  0  0  0  0  0  0
  131.0398  136.6727  158.6922 H   0  0  0  0  0  0  0  0  0  0  0  0
  130.7198  136.1253  160.2130 H   0  0  0  0  0  0  0  0  0  0  0  0
  129.9803  137.9894  159.8356 C   0  0  0  0  0  0  0  0  0  0  0  0
  131.2039  138.7030  160.3500 C   0  0  0  0  0  0  0  0  0  0  0  0
  132.4231  138.7102  159.7685 C   0  0  0  0  0  0  0  0  0  0  0  0
  133.2491  139.4623  160.5419 N   0  0  0  0  0  0  0  0  0  0  0  0
  134.6032  139.7206  160.2910 C   0  0  0  0  0  0  0  0  0  0  0  0
  135.3335  140.5147  161.1652 C   0  0  0  0  0  0  0  0  0  0  0  0
  136.6668  140.7718  160.9124 C   0  0  0  0  0  0  0  0  0  0  0  0
  137.2741  140.2401  159.7896 C   0  0  0  0  0  0  0  0  0  0  0  0
  136.5496  139.4488  158.9173 C   0  0  0  0  0  0  0  0  0  0  0  0
  135.2161  139.1876  159.1647 C   0  0  0  0  0  0  0  0  0  0  0  0
  132.5081  139.9391  161.6307 N   0  0  0  0  0  0  0  0  0  0  0  0
  131.2773  139.4850  161.5195 C   0  0  0  0  0  0  0  0  0  0  0  0
  130.1621  139.7505  162.4616 C   0  0  0  0  0  0  0  0  0  0  0  0
  129.7447  141.0583  162.7005 C   0  0  0  0  0  0  0  0  0  0  0  0
  128.7031  141.2990  163.5734 C   0  0  0  0  0  0  0  0  0  0  0  0
  128.0814  140.2458  164.2194 C   0  0  0  0  0  0  0  0  0  0  0  0
  128.4953  138.9459  163.9904 C   0  0  0  0  0  0  0  0  0  0  0  0
  129.5322  138.6933  163.1152 C   0  0  0  0  0  0  0  0  0  0  0  0
  128.0455  133.1645  160.8437 H   0  0  0  0  0  0  0  0  0  0  0  0
  129.6648  132.5579  161.2659 H   0  0  0  0  0  0  0  0  0  0  0  0
  129.3517  134.3098  161.2319 H   0  0  0  0  0  0  0  0  0  0  0  0
  130.6993  133.6898  154.8477 H   0  0  0  0  0  0  0  0  0  0  0  0
  131.4907  132.3104  152.9691 H   0  0  0  0  0  0  0  0  0  0  0  0
  133.0406  129.8390  152.7819 H   0  0  0  0  0  0  0  0  0  0  0  0
  131.8252  128.6015  153.1814 H   0  0  0  0  0  0  0  0  0  0  0  0
  130.2908  129.8585  151.8508 H   0  0  0  0  0  0  0  0  0  0  0  0
  131.4155  128.8523  155.4651 H   0  0  0  0  0  0  0  0  0  0  0  0
  130.6344  130.2252  157.3526 H   0  0  0  0  0  0  0  0  0  0  0  0
  130.0647  134.8109  156.4098 H   0  0  0  0  0  0  0  0  0  0  0  0
  128.4014  135.8837  159.7095 H   0  0  0  0  0  0  0  0  0  0  0  0
  128.7472  136.4751  158.0668 H   0  0  0  0  0  0  0  0  0  0  0  0
  129.2295  137.9409  160.6244 H   0  0  0  0  0  0  0  0  0  0  0  0
  129.5754  138.5322  158.9815 H   0  0  0  0  0  0  0  0  0  0  0  0
  132.6938  138.2060  158.8526 H   0  0  0  0  0  0  0  0  0  0  0  0
  134.8595  140.9309  162.0418 H   0  0  0  0  0  0  0  0  0  0  0  0
  137.2355  141.3889  161.5922 H   0  0  0  0  0  0  0  0  0  0  0  0
  138.3167  140.4428  159.5939 H   0  0  0  0  0  0  0  0  0  0  0  0
  137.0269  139.0344  158.0416 H   0  0  0  0  0  0  0  0  0  0  0  0
  134.6508  138.5694  158.4832 H   0  0  0  0  0  0  0  0  0  0  0  0
  130.2327  141.8817  162.2002 H   0  0  0  0  0  0  0  0  0  0  0  0
  128.3757  142.3118  163.7555 H   0  0  0  0  0  0  0  0  0  0  0  0
  127.2699  140.4394  164.9053 H   0  0  0  0  0  0  0  0  0  0  0  0
  128.0061  138.1273  164.4972 H   0  0  0  0  0  0  0  0  0  0  0  0
  129.8544  137.6779  162.9370 H   0  0  0  0  0  0  0  0  0  0  0  0
  1  2  1  0
  1 37  1  0
  1 38  1  0
  1 39  1  0
  2 14  1  0
  2  3  2  0
  3  4  1  0
  4  5  1  0
  4 13  1  0
  5 12  1  0
  5  6  2  0
  6  7  1  0
  6 40  1  0
  7  8  2  0
  7 41  1  0
  8  9  1  0
  8 11  1  0
  9 10  1  0
  9 42  1  0
  9 43  1  0
 10 44  1  0
 11 12  2  0
 11 45  1  0
 12 46  1  0
 13 14  2  0
 13 47  1  0
 14 15  1  0
 15 16  1  0
 15 48  1  0
 15 49  1  0
 16 17  1  0
 16 18  1  0
 16 19  1  0
 19 20  1  0
 19 50  1  0
 19 51  1  0
 20 30  1  0
 20 21  2  0
 21 22  1  0
 21 52  1  0
 22 23  1  0
 22 29  1  0
 23 28  1  0
 23 24  2  0
 24 25  1  0
 24 53  1  0
 25 26  2  0
 25 54  1  0
 26 27  1  0
 26 55  1  0
 27 28  2  0
 27 56  1  0
 28 57  1  0
 29 30  2  0
 30 31  1  0
 31 36  1  0
 31 32  2  0
 32 33  1  0
 32 58  1  0
 33 34  2  0
 33 59  1  0
 34 35  1  0
 34 60  1  0
 35 36  2  0
 35 61  1  0
 36 62  1  0
M  CHG  1  16   1
M  END
>  <DOCK_score>  (1) 
-57.988678

>  <SMILES>  (1) 
Cc1nn(-c2ccc(CO)cc2)cc1C[NH2+]Cc1cn(-c2ccccc2)nc1-c1ccccc1

$$$$
