c1ccc(-c2ccc(-c3c[nH]c(NCCNc4ccc5ccccc5c4)[nH+]3)cc2)cc1
     RDKit          3D

 56 60  0  0  1  0  0  0  0  0999 V2000
  130.5741  129.0700  150.7488 C   0  0  0  0  0  0  0  0  0  0  0  0
  130.2750  130.4189  150.8139 C   0  0  0  0  0  0  0  0  0  0  0  0
  130.2574  131.0665  152.0323 C   0  0  0  0  0  0  0  0  0  0  0  0
  130.5415  130.3586  153.1989 C   0  0  0  0  0  0  0  0  0  0  0  0
  130.5242  131.0489  154.5114 C   0  0  0  0  0  0  0  0  0  0  0  0
  129.6726  132.1340  154.7172 C   0  0  0  0  0  0  0  0  0  0  0  0
  129.6563  132.7754  155.9362 C   0  0  0  0  0  0  0  0  0  0  0  0
  130.4916  132.3392  156.9647 C   0  0  0  0  0  0  0  0  0  0  0  0
  130.4742  133.0294  158.2767 C   0  0  0  0  0  0  0  0  0  0  0  0
  130.1671  132.4653  159.4717 C   0  0  0  0  0  0  0  0  0  0  0  0
  130.2737  133.4546  160.4184 N   0  0  0  0  0  0  0  0  0  0  0  0
  130.1153  133.3580  161.3705 H   0  0  0  0  0  0  0  0  0  0  0  0
  130.6430  134.5952  159.7744 C   0  0  0  0  0  0  0  0  0  0  0  0
  130.8584  135.8251  160.3724 N   0  0  0  0  0  0  0  0  0  0  0  0
  130.6903  135.9751  161.8199 C   0  0  0  0  0  0  0  0  0  0  0  0
  132.0115  136.4312  162.4422 C   0  0  0  0  0  0  0  0  0  0  0  0
  132.4074  137.7164  161.8607 N   0  0  0  0  0  0  0  0  0  0  0  0
  133.7596  138.0449  161.7483 C   0  0  0  0  0  0  0  0  0  0  0  0
  134.7034  137.3753  162.5370 C   0  0  0  0  0  0  0  0  0  0  0  0
  136.0262  137.6739  162.4475 C   0  0  0  0  0  0  0  0  0  0  0  0
  136.4614  138.6681  161.5536 C   0  0  0  0  0  0  0  0  0  0  0  0
  137.8230  138.9972  161.4399 C   0  0  0  0  0  0  0  0  0  0  0  0
  138.2121  139.9639  160.5643 C   0  0  0  0  0  0  0  0  0  0  0  0
  137.2796  140.6360  159.7762 C   0  0  0  0  0  0  0  0  0  0  0  0
  135.9529  140.3444  159.8590 C   0  0  0  0  0  0  0  0  0  0  0  0
  135.5131  139.3514  160.7517 C   0  0  0  0  0  0  0  0  0  0  0  0
  134.1525  139.0204  160.8586 C   0  0  0  0  0  0  0  0  0  0  0  0
  130.7619  134.3374  158.4949 N   0  0  0  0  0  0  0  0  0  0  0  0
  131.0116  134.9799  157.8124 H   0  0  0  0  0  0  0  0  0  0  0  0
  131.3474  131.2575  156.7569 C   0  0  0  0  0  0  0  0  0  0  0  0
  131.3596  130.6132  155.5396 C   0  0  0  0  0  0  0  0  0  0  0  0
  130.8477  129.0007  153.1268 C   0  0  0  0  0  0  0  0  0  0  0  0
  130.8571  128.3623  151.9032 C   0  0  0  0  0  0  0  0  0  0  0  0
  130.5867  128.5672  149.7930 H   0  0  0  0  0  0  0  0  0  0  0  0
  130.0553  130.9665  149.9093 H   0  0  0  0  0  0  0  0  0  0  0  0
  130.0242  132.1200  152.0819 H   0  0  0  0  0  0  0  0  0  0  0  0
  129.0261  132.4719  153.9208 H   0  0  0  0  0  0  0  0  0  0  0  0
  128.9967  133.6154  156.0956 H   0  0  0  0  0  0  0  0  0  0  0  0
  129.8920  131.4355  159.6453 H   0  0  0  0  0  0  0  0  0  0  0  0
  131.1208  136.5874  159.8329 H   0  0  0  0  0  0  0  0  0  0  0  0
  129.9185  136.7181  162.0210 H   0  0  0  0  0  0  0  0  0  0  0  0
  130.3959  135.0190  162.2526 H   0  0  0  0  0  0  0  0  0  0  0  0
  131.8864  136.5430  163.5193 H   0  0  0  0  0  0  0  0  0  0  0  0
  132.7835  135.6884  162.2412 H   0  0  0  0  0  0  0  0  0  0  0  0
  131.7298  138.3391  161.5540 H   0  0  0  0  0  0  0  0  0  0  0  0
  134.3755  136.6106  163.2256 H   0  0  0  0  0  0  0  0  0  0  0  0
  136.7419  137.1487  163.0625 H   0  0  0  0  0  0  0  0  0  0  0  0
  138.5571  138.4855  162.0445 H   0  0  0  0  0  0  0  0  0  0  0  0
  139.2592  140.2140  160.4792 H   0  0  0  0  0  0  0  0  0  0  0  0
  137.6148  141.3992  159.0895 H   0  0  0  0  0  0  0  0  0  0  0  0
  135.2415  140.8727  159.2415 H   0  0  0  0  0  0  0  0  0  0  0  0
  133.4193  139.5294  160.2506 H   0  0  0  0  0  0  0  0  0  0  0  0
  131.9974  130.9226  157.5517 H   0  0  0  0  0  0  0  0  0  0  0  0
  132.0189  129.7728  155.3800 H   0  0  0  0  0  0  0  0  0  0  0  0
  131.0730  128.4483  154.0271 H   0  0  0  0  0  0  0  0  0  0  0  0
  131.0901  127.3093  151.8465 H   0  0  0  0  0  0  0  0  0  0  0  0
  1 33  2  0
  1  2  1  0
  1 34  1  0
  2  3  2  0
  2 35  1  0
  3  4  1  0
  3 36  1  0
  4  5  1  0
  4 32  2  0
  5 31  1  0
  5  6  2  0
  6  7  1  0
  6 37  1  0
  7  8  2  0
  7 38  1  0
  8  9  1  0
  8 30  1  0
  9 28  1  0
  9 10  2  0
 10 11  1  0
 10 39  1  0
 11 12  1  0
 11 13  1  0
 13 14  1  0
 13 28  2  0
 14 15  1  0
 14 40  1  0
 15 16  1  0
 15 41  1  0
 15 42  1  0
 16 17  1  0
 16 43  1  0
 16 44  1  0
 17 18  1  0
 17 45  1  0
 18 27  1  0
 18 19  2  0
 19 20  1  0
 19 46  1  0
 20 21  2  0
 20 47  1  0
 21 26  1  0
 21 22  1  0
 22 23  2  0
 22 48  1  0
 23 24  1  0
 23 49  1  0
 24 25  2  0
 24 50  1  0
 25 26  1  0
 25 51  1  0
 26 27  2  0
 27 52  1  0
 28 29  1  0
 30 31  2  0
 30 53  1  0
 31 54  1  0
 32 33  1  0
 32 55  1  0
 33 56  1  0
M  CHG  1  28   1
M  END
>  <DOCK_score>  (1) 
-57.84861

>  <SMILES>  (1) 
c1ccc(-c2ccc(-c3c[nH]c(NCCNc4ccc5ccccc5c4)[nH+]3)cc2)cc1

$$$$
