OC[C@@H](Cc1ccccc1)Nc1[nH]cc(-c2ccc(-c3ccccc3)cc2)[nH+]1
     RDKit          3D

 52 55  0  0  1  0  0  0  0  0999 V2000
  132.9047  133.7351  162.2038 O   0  0  0  0  0  0  0  0  0  0  0  0
  132.9951  135.1561  162.0834 C   0  0  0  0  0  0  0  0  0  0  0  0
  131.7474  135.6884  161.3753 C   0  0  1  0  0  0  0  0  0  0  0  0
  130.8695  135.1499  161.7323 H   0  0  0  0  0  0  0  0  0  0  0  0
  131.5879  137.1801  161.6758 C   0  0  0  0  0  0  0  0  0  0  0  0
  132.8018  137.9245  161.1821 C   0  0  0  0  0  0  0  0  0  0  0  0
  133.8848  138.1133  162.0200 C   0  0  0  0  0  0  0  0  0  0  0  0
  135.0001  138.7919  161.5655 C   0  0  0  0  0  0  0  0  0  0  0  0
  135.0280  139.2908  160.2766 C   0  0  0  0  0  0  0  0  0  0  0  0
  133.9429  139.1064  159.4405 C   0  0  0  0  0  0  0  0  0  0  0  0
  132.8296  138.4232  159.8932 C   0  0  0  0  0  0  0  0  0  0  0  0
  131.8856  135.4933  159.9299 N   0  0  0  0  0  0  0  0  0  0  0  0
  131.4362  134.3228  159.3434 C   0  0  0  0  0  0  0  0  0  0  0  0
  130.8565  133.2798  159.9982 N   0  0  0  0  0  0  0  0  0  0  0  0
  130.6851  133.2238  160.9513 H   0  0  0  0  0  0  0  0  0  0  0  0
  130.5584  132.3217  159.0604 C   0  0  0  0  0  0  0  0  0  0  0  0
  130.9641  132.8062  157.8599 C   0  0  0  0  0  0  0  0  0  0  0  0
  130.8446  132.1143  156.5542 C   0  0  0  0  0  0  0  0  0  0  0  0
  130.1063  132.6943  155.5225 C   0  0  0  0  0  0  0  0  0  0  0  0
  129.9958  132.0516  154.3093 C   0  0  0  0  0  0  0  0  0  0  0  0
  130.6225  130.8206  154.1126 C   0  0  0  0  0  0  0  0  0  0  0  0
  130.5033  130.1295  152.8059 C   0  0  0  0  0  0  0  0  0  0  0  0
  130.5425  128.7375  152.7453 C   0  0  0  0  0  0  0  0  0  0  0  0
  130.4316  128.0991  151.5269 C   0  0  0  0  0  0  0  0  0  0  0  0
  130.2810  128.8382  150.3669 C   0  0  0  0  0  0  0  0  0  0  0  0
  130.2470  130.2198  150.4205 C   0  0  0  0  0  0  0  0  0  0  0  0
  130.3521  130.8689  151.6339 C   0  0  0  0  0  0  0  0  0  0  0  0
  131.3561  130.2390  155.1454 C   0  0  0  0  0  0  0  0  0  0  0  0
  131.4709  130.8836  156.3571 C   0  0  0  0  0  0  0  0  0  0  0  0
  131.5041  134.0337  158.0669 N   0  0  0  0  0  0  0  0  0  0  0  0
  131.8780  134.6069  157.3795 H   0  0  0  0  0  0  0  0  0  0  0  0
  132.8376  133.2722  161.3575 H   0  0  0  0  0  0  0  0  0  0  0  0
  133.8805  135.4160  161.5034 H   0  0  0  0  0  0  0  0  0  0  0  0
  133.0672  135.6011  163.0758 H   0  0  0  0  0  0  0  0  0  0  0  0
  130.6991  137.5593  161.1714 H   0  0  0  0  0  0  0  0  0  0  0  0
  131.4852  137.3252  162.7512 H   0  0  0  0  0  0  0  0  0  0  0  0
  133.8611  137.7275  163.0285 H   0  0  0  0  0  0  0  0  0  0  0  0
  135.8477  138.9362  162.2190 H   0  0  0  0  0  0  0  0  0  0  0  0
  135.8976  139.8248  159.9230 H   0  0  0  0  0  0  0  0  0  0  0  0
  133.9646  139.4964  158.4335 H   0  0  0  0  0  0  0  0  0  0  0  0
  131.9816  138.2795  159.2400 H   0  0  0  0  0  0  0  0  0  0  0  0
  132.2920  136.1845  159.3841 H   0  0  0  0  0  0  0  0  0  0  0  0
  130.0903  131.3658  159.2436 H   0  0  0  0  0  0  0  0  0  0  0  0
  129.6211  133.6470  155.6751 H   0  0  0  0  0  0  0  0  0  0  0  0
  129.4242  132.5007  153.5105 H   0  0  0  0  0  0  0  0  0  0  0  0
  130.6591  128.1597  153.6503 H   0  0  0  0  0  0  0  0  0  0  0  0
  130.4620  127.0206  151.4787 H   0  0  0  0  0  0  0  0  0  0  0  0
  130.1945  128.3347  149.4154 H   0  0  0  0  0  0  0  0  0  0  0  0
  130.1338  130.7917  149.5114 H   0  0  0  0  0  0  0  0  0  0  0  0
  130.3210  131.9476  151.6749 H   0  0  0  0  0  0  0  0  0  0  0  0
  131.8378  129.2842  154.9939 H   0  0  0  0  0  0  0  0  0  0  0  0
  132.0428  130.4347  157.1556 H   0  0  0  0  0  0  0  0  0  0  0  0
  1  2  1  0
  1 32  1  0
  2  3  1  0
  2 33  1  0
  2 34  1  0
  3  4  1  1
  3  5  1  0
  3 12  1  0
  5  6  1  0
  5 35  1  0
  5 36  1  0
  6 11  1  0
  6  7  2  0
  7  8  1  0
  7 37  1  0
  8  9  2  0
  8 38  1  0
  9 10  1  0
  9 39  1  0
 10 11  2  0
 10 40  1  0
 11 41  1  0
 12 42  1  0
 13 12  1  0
 13 30  2  0
 13 14  1  0
 14 15  1  0
 14 16  1  0
 16 17  2  0
 16 43  1  0
 17 18  1  0
 17 30  1  0
 18 29  1  0
 18 19  2  0
 19 20  1  0
 19 44  1  0
 20 21  2  0
 20 45  1  0
 21 22  1  0
 21 28  1  0
 22 27  1  0
 22 23  2  0
 23 24  1  0
 23 46  1  0
 24 25  2  0
 24 47  1  0
 25 26  1  0
 25 48  1  0
 26 27  2  0
 26 49  1  0
 27 50  1  0
 28 29  2  0
 28 51  1  0
 29 52  1  0
 30 31  1  0
M  CHG  1  30   1
M  END
>  <DOCK_score>  (1) 
-64.669106

>  <SMILES>  (1) 
OC[C@@H](Cc1ccccc1)Nc1[nH]cc(-c2ccc(-c3ccccc3)cc2)[nH+]1

$$$$
