Cc1cccc(O)c1C1=CC[N@H+](C(c2ccccc2)c2cccnc2)CC1
     RDKit          3D

 52 55  0  0  1  0  0  0  0  0999 V2000
  133.7873  138.2719  162.8672 C   0  0  0  0  0  0  0  0  0  0  0  0
  134.2724  138.9616  161.6181 C   0  0  0  0  0  0  0  0  0  0  0  0
  135.1935  139.9852  161.7075 C   0  0  0  0  0  0  0  0  0  0  0  0
  135.6460  140.6181  160.5632 C   0  0  0  0  0  0  0  0  0  0  0  0
  135.1711  140.2392  159.3214 C   0  0  0  0  0  0  0  0  0  0  0  0
  134.2463  139.2136  159.2151 C   0  0  0  0  0  0  0  0  0  0  0  0
  133.7831  138.8370  157.9950 O   0  0  0  0  0  0  0  0  0  0  0  0
  133.7905  138.5667  160.3703 C   0  0  0  0  0  0  0  0  0  0  0  0
  132.8046  137.4714  160.2680 C   0  0  0  0  0  0  0  0  0  0  0  0
  131.5226  137.7647  160.3189 C   0  0  0  0  0  0  0  0  0  0  0  0
  130.4426  136.7257  160.2250 C   0  0  0  0  0  0  0  0  0  0  0  0
  130.9769  135.4799  159.6625 N   0  0  2  0  0  0  0  0  0  0  0  0
  131.2302  135.6267  158.6969 H   0  0  0  0  0  0  0  0  0  0  0  0
  129.9597  134.4235  159.7488 C   0  0  1  0  0  0  0  0  0  0  0  0
  128.7368  134.8391  158.9724 C   0  0  0  0  0  0  0  0  0  0  0  0
  127.4876  134.3900  159.3579 C   0  0  0  0  0  0  0  0  0  0  0  0
  126.3654  134.7747  158.6482 C   0  0  0  0  0  0  0  0  0  0  0  0
  126.4935  135.6008  157.5474 C   0  0  0  0  0  0  0  0  0  0  0  0
  127.7430  136.0461  157.1589 C   0  0  0  0  0  0  0  0  0  0  0  0
  128.8648  135.6649  157.8711 C   0  0  0  0  0  0  0  0  0  0  0  0
  130.5119  133.1461  159.1702 C   0  0  0  0  0  0  0  0  0  0  0  0
  130.9278  133.0965  157.8483 C   0  0  0  0  0  0  0  0  0  0  0  0
  131.4332  131.9014  157.3602 C   0  0  0  0  0  0  0  0  0  0  0  0
  131.4953  130.8040  158.1984 C   0  0  0  0  0  0  0  0  0  0  0  0
  131.0859  130.8866  159.4490 N   0  0  0  0  0  0  0  0  0  0  0  0
  130.6047  132.0083  159.9485 C   0  0  0  0  0  0  0  0  0  0  0  0
  132.1679  135.0804  160.4288 C   0  0  0  0  0  0  0  0  0  0  0  0
  133.3016  136.0600  160.1153 C   0  0  0  0  0  0  0  0  0  0  0  0
  134.4352  137.4237  163.0887 H   0  0  0  0  0  0  0  0  0  0  0  0
  133.8090  138.9732  163.7014 H   0  0  0  0  0  0  0  0  0  0  0  0
  132.7671  137.9197  162.7149 H   0  0  0  0  0  0  0  0  0  0  0  0
  135.5664  140.2906  162.6741 H   0  0  0  0  0  0  0  0  0  0  0  0
  136.3705  141.4151  160.6409 H   0  0  0  0  0  0  0  0  0  0  0  0
  135.5251  140.7405  158.4326 H   0  0  0  0  0  0  0  0  0  0  0  0
  133.1417  138.1138  158.0238 H   0  0  0  0  0  0  0  0  0  0  0  0
  131.2343  138.7996  160.4299 H   0  0  0  0  0  0  0  0  0  0  0  0
  129.6394  137.0940  159.5869 H   0  0  0  0  0  0  0  0  0  0  0  0
  130.0469  136.5307  161.2216 H   0  0  0  0  0  0  0  0  0  0  0  0
  129.6901  134.2629  160.7926 H   0  0  0  0  0  0  0  0  0  0  0  0
  127.3880  133.7412  160.2155 H   0  0  0  0  0  0  0  0  0  0  0  0
  125.3891  134.4271  158.9520 H   0  0  0  0  0  0  0  0  0  0  0  0
  125.6170  135.8986  156.9909 H   0  0  0  0  0  0  0  0  0  0  0  0
  127.8431  136.6915  156.2988 H   0  0  0  0  0  0  0  0  0  0  0  0
  129.8414  136.0124  157.5675 H   0  0  0  0  0  0  0  0  0  0  0  0
  130.8632  133.9690  157.2151 H   0  0  0  0  0  0  0  0  0  0  0  0
  131.7697  131.8274  156.3366 H   0  0  0  0  0  0  0  0  0  0  0  0
  131.8840  129.8682  157.8247 H   0  0  0  0  0  0  0  0  0  0  0  0
  130.2791  132.0377  160.9779 H   0  0  0  0  0  0  0  0  0  0  0  0
  132.4660  134.0719  160.1424 H   0  0  0  0  0  0  0  0  0  0  0  0
  131.9457  135.1072  161.4956 H   0  0  0  0  0  0  0  0  0  0  0  0
  133.6435  135.9042  159.0921 H   0  0  0  0  0  0  0  0  0  0  0  0
  134.1292  135.8901  160.8042 H   0  0  0  0  0  0  0  0  0  0  0  0
  1  2  1  0
  1 29  1  0
  1 30  1  0
  1 31  1  0
  2  8  2  0
  2  3  1  0
  3  4  2  0
  3 32  1  0
  4  5  1  0
  4 33  1  0
  5  6  2  0
  5 34  1  0
  6  7  1  0
  6  8  1  0
  7 35  1  0
  8  9  1  0
  9 28  1  0
  9 10  2  0
 10 11  1  0
 10 36  1  0
 11 12  1  0
 11 37  1  0
 11 38  1  0
 12 13  1  6
 12 14  1  0
 12 27  1  0
 14 15  1  0
 14 21  1  0
 14 39  1  1
 15 20  1  0
 15 16  2  0
 16 17  1  0
 16 40  1  0
 17 18  2  0
 17 41  1  0
 18 19  1  0
 18 42  1  0
 19 20  2  0
 19 43  1  0
 20 44  1  0
 21 26  1  0
 21 22  2  0
 22 23  1  0
 22 45  1  0
 23 24  2  0
 23 46  1  0
 24 25  1  0
 24 47  1  0
 25 26  2  0
 26 48  1  0
 27 28  1  0
 27 49  1  0
 27 50  1  0
 28 51  1  0
 28 52  1  0
M  CHG  1  12   1
M  END
>  <DOCK_score>  (1) 
-59.372021

>  <SMILES>  (1) 
Cc1cccc(O)c1C1=CC[N@H+](C(c2ccccc2)c2cccnc2)CC1

$$$$
