CC1([NH2+]Cc2cc(O)cc(C(=O)N3CCC(C(C)(F)F)CC3)c2)CC=CC1
     RDKit          3D

 56 58  0  0  1  0  0  0  0  0999 V2000
  129.2708  134.2404  156.8382 C   0  0  0  0  0  0  0  0  0  0  0  0
  129.8469  133.8960  158.2132 C   0  0  0  0  0  0  0  0  0  0  0  0
  130.1061  135.1135  158.9931 N   0  0  0  0  0  0  0  0  0  0  0  0
  130.7681  135.6939  158.5003 H   0  0  0  0  0  0  0  0  0  0  0  0
  130.4848  134.8618  159.8938 H   0  0  0  0  0  0  0  0  0  0  0  0
  128.8502  135.8524  159.1792 C   0  0  0  0  0  0  0  0  0  0  0  0
  129.1161  137.1016  159.9793 C   0  0  0  0  0  0  0  0  0  0  0  0
  130.2021  137.8999  159.6703 C   0  0  0  0  0  0  0  0  0  0  0  0
  130.4572  139.0487  160.4065 C   0  0  0  0  0  0  0  0  0  0  0  0
  131.5292  139.8266  160.1020 O   0  0  0  0  0  0  0  0  0  0  0  0
  129.6167  139.4055  161.4477 C   0  0  0  0  0  0  0  0  0  0  0  0
  128.5176  138.6041  161.7570 C   0  0  0  0  0  0  0  0  0  0  0  0
  127.6152  138.9786  162.8669 C   0  0  0  0  0  0  0  0  0  0  0  0
  126.6512  139.6876  162.6536 O   0  0  0  0  0  0  0  0  0  0  0  0
  127.8616  138.5336  164.1150 N   0  0  0  0  0  0  0  0  0  0  0  0
  126.9777  138.9022  165.2292 C   0  0  0  0  0  0  0  0  0  0  0  0
  126.5171  137.6168  165.9333 C   0  0  0  0  0  0  0  0  0  0  0  0
  127.7441  136.8016  166.3480 C   0  0  0  0  0  0  0  0  0  0  0  0
  127.2921  135.5383  167.0831 C   0  0  0  0  0  0  0  0  0  0  0  0
  126.4954  135.9307  168.3289 C   0  0  0  0  0  0  0  0  0  0  0  0
  126.4857  134.7696  166.2368 F   0  0  0  0  0  0  0  0  0  0  0  0
  128.4135  134.7928  167.4625 F   0  0  0  0  0  0  0  0  0  0  0  0
  128.5426  136.4088  165.1028 C   0  0  0  0  0  0  0  0  0  0  0  0
  129.0228  137.6760  164.3884 C   0  0  0  0  0  0  0  0  0  0  0  0
  128.2724  137.4477  161.0146 C   0  0  0  0  0  0  0  0  0  0  0  0
  128.9120  132.9331  158.9814 C   0  0  0  0  0  0  0  0  0  0  0  0
  129.4365  131.5521  158.6607 C   0  0  0  0  0  0  0  0  0  0  0  0
  130.6441  131.6102  158.1688 C   0  0  0  0  0  0  0  0  0  0  0  0
  131.1272  133.0391  158.0798 C   0  0  0  0  0  0  0  0  0  0  0  0
  129.9807  134.8616  156.2921 H   0  0  0  0  0  0  0  0  0  0  0  0
  129.0877  133.3219  156.2805 H   0  0  0  0  0  0  0  0  0  0  0  0
  128.3336  134.7829  156.9625 H   0  0  0  0  0  0  0  0  0  0  0  0
  128.1351  135.2253  159.7116 H   0  0  0  0  0  0  0  0  0  0  0  0
  128.4411  136.1245  158.2062 H   0  0  0  0  0  0  0  0  0  0  0  0
  130.8565  137.6265  158.8558 H   0  0  0  0  0  0  0  0  0  0  0  0
  132.0542  139.4994  159.3586 H   0  0  0  0  0  0  0  0  0  0  0  0
  129.8113  140.3016  162.0184 H   0  0  0  0  0  0  0  0  0  0  0  0
  127.5205  139.5332  165.9329 H   0  0  0  0  0  0  0  0  0  0  0  0
  126.1113  139.4408  164.8454 H   0  0  0  0  0  0  0  0  0  0  0  0
  125.9015  137.0275  165.2537 H   0  0  0  0  0  0  0  0  0  0  0  0
  125.9365  137.8763  166.8184 H   0  0  0  0  0  0  0  0  0  0  0  0
  128.3719  137.4004  167.0079 H   0  0  0  0  0  0  0  0  0  0  0  0
  125.6215  136.5114  168.0334 H   0  0  0  0  0  0  0  0  0  0  0  0
  126.1733  135.0306  168.8527 H   0  0  0  0  0  0  0  0  0  0  0  0
  127.1236  136.5295  168.9883 H   0  0  0  0  0  0  0  0  0  0  0  0
  127.9078  135.8308  164.4310 H   0  0  0  0  0  0  0  0  0  0  0  0
  129.4034  135.8082  165.3965 H   0  0  0  0  0  0  0  0  0  0  0  0
  129.5063  137.4052  163.4497 H   0  0  0  0  0  0  0  0  0  0  0  0
  129.7302  138.2098  165.0229 H   0  0  0  0  0  0  0  0  0  0  0  0
  127.4224  136.8244  161.2501 H   0  0  0  0  0  0  0  0  0  0  0  0
  128.9704  133.1219  160.0534 H   0  0  0  0  0  0  0  0  0  0  0  0
  127.8853  133.0409  158.6314 H   0  0  0  0  0  0  0  0  0  0  0  0
  128.8839  130.6375  158.8174 H   0  0  0  0  0  0  0  0  0  0  0  0
  131.2221  130.7498  157.8655 H   0  0  0  0  0  0  0  0  0  0  0  0
  131.6059  133.2188  157.1171 H   0  0  0  0  0  0  0  0  0  0  0  0
  131.8181  133.2595  158.8936 H   0  0  0  0  0  0  0  0  0  0  0  0
  1 30  1  0
  1 31  1  0
  1 32  1  0
  2  1  1  0
  2 29  1  0
  2  3  1  0
  2 26  1  0
  3  4  1  0
  3  5  1  0
  3  6  1  0
  6  7  1  0
  6 33  1  0
  6 34  1  0
  7 25  1  0
  7  8  2  0
  8  9  1  0
  8 35  1  0
  9 10  1  0
  9 11  2  0
 10 36  1  0
 11 12  1  0
 11 37  1  0
 12 13  1  0
 12 25  2  0
 13 14  2  0
 13 15  1  0
 15 24  1  0
 15 16  1  0
 16 17  1  0
 16 38  1  0
 16 39  1  0
 17 18  1  0
 17 40  1  0
 17 41  1  0
 18 19  1  0
 18 23  1  0
 18 42  1  0
 19 20  1  0
 19 21  1  0
 19 22  1  0
 20 43  1  0
 20 44  1  0
 20 45  1  0
 23 24  1  0
 23 46  1  0
 23 47  1  0
 24 48  1  0
 24 49  1  0
 25 50  1  0
 26 27  1  0
 26 51  1  0
 26 52  1  0
 27 28  2  0
 27 53  1  0
 28 29  1  0
 28 54  1  0
 29 55  1  0
 29 56  1  0
M  CHG  1   3   1
M  END
>  <DOCK_score>  (1) 
-41.715305

>  <SMILES>  (1) 
CC1([NH2+]Cc2cc(O)cc(C(=O)N3CCC(C(C)(F)F)CC3)c2)CC=CC1

$$$$
