Nc1ccc(-c2c[nH]c(N[C@@H](CC3=CCC=CC3)c3cccs3)[nH+]2)cc1
     RDKit          3D

 49 52  0  0  1  0  0  0  0  0999 V2000
  130.8883  129.6623  152.2207 N   0  0  0  0  0  0  0  0  0  0  0  0
  130.7481  130.3384  153.4350 C   0  0  0  0  0  0  0  0  0  0  0  0
  129.9996  131.5078  153.4958 C   0  0  0  0  0  0  0  0  0  0  0  0
  129.8595  132.1766  154.6935 C   0  0  0  0  0  0  0  0  0  0  0  0
  130.4692  131.6788  155.8440 C   0  0  0  0  0  0  0  0  0  0  0  0
  130.3203  132.3966  157.1338 C   0  0  0  0  0  0  0  0  0  0  0  0
  129.7707  131.8949  158.2673 C   0  0  0  0  0  0  0  0  0  0  0  0
  129.8343  132.8889  159.2149 N   0  0  0  0  0  0  0  0  0  0  0  0
  129.5187  132.8312  160.1303 H   0  0  0  0  0  0  0  0  0  0  0  0
  130.4213  133.9689  158.6312 C   0  0  0  0  0  0  0  0  0  0  0  0
  130.6727  135.1820  159.2490 N   0  0  0  0  0  0  0  0  0  0  0  0
  130.2975  135.3818  160.6509 C   0  0  1  0  0  0  0  0  0  0  0  0
  130.8201  134.6558  161.2737 H   0  0  0  0  0  0  0  0  0  0  0  0
  130.6829  136.7974  161.0853 C   0  0  0  0  0  0  0  0  0  0  0  0
  132.1707  136.9824  160.9321 C   0  0  0  0  0  0  0  0  0  0  0  0
  132.6022  137.9135  160.1369 C   0  0  0  0  0  0  0  0  0  0  0  0
  134.0604  138.1804  159.9136 C   0  0  0  0  0  0  0  0  0  0  0  0
  134.8920  137.6077  161.0217 C   0  0  0  0  0  0  0  0  0  0  0  0
  134.4606  136.6762  161.8164 C   0  0  0  0  0  0  0  0  0  0  0  0
  133.0883  136.0871  161.7090 C   0  0  0  0  0  0  0  0  0  0  0  0
  128.8098  135.1969  160.8042 C   0  0  0  0  0  0  0  0  0  0  0  0
  127.8771  135.9200  160.1825 C   0  0  0  0  0  0  0  0  0  0  0  0
  126.5718  135.5674  160.4792 C   0  0  0  0  0  0  0  0  0  0  0  0
  126.4446  134.5580  161.3419 C   0  0  0  0  0  0  0  0  0  0  0  0
  128.0378  133.9900  161.8242 S   0  0  0  0  0  0  0  0  0  0  0  0
  130.7102  133.6708  157.3878 N   0  0  0  0  0  0  0  0  0  0  0  0
  131.1348  134.2665  156.7509 H   0  0  0  0  0  0  0  0  0  0  0  0
  131.2238  130.5084  155.7797 C   0  0  0  0  0  0  0  0  0  0  0  0
  131.3569  129.8401  154.5809 C   0  0  0  0  0  0  0  0  0  0  0  0
  130.4634  130.0093  151.4206 H   0  0  0  0  0  0  0  0  0  0  0  0
  131.4105  128.8459  152.1775 H   0  0  0  0  0  0  0  0  0  0  0  0
  129.5278  131.8933  152.6041 H   0  0  0  0  0  0  0  0  0  0  0  0
  129.2775  133.0851  154.7404 H   0  0  0  0  0  0  0  0  0  0  0  0
  129.3651  130.9030  158.4014 H   0  0  0  0  0  0  0  0  0  0  0  0
  131.0971  135.8999  158.7534 H   0  0  0  0  0  0  0  0  0  0  0  0
  130.1605  137.5234  160.4623 H   0  0  0  0  0  0  0  0  0  0  0  0
  130.4038  136.9461  162.1283 H   0  0  0  0  0  0  0  0  0  0  0  0
  131.8794  138.5224  159.6142 H   0  0  0  0  0  0  0  0  0  0  0  0
  134.3652  137.7305  158.9689 H   0  0  0  0  0  0  0  0  0  0  0  0
  134.2232  139.2571  159.8657 H   0  0  0  0  0  0  0  0  0  0  0  0
  135.8934  137.9861  161.1647 H   0  0  0  0  0  0  0  0  0  0  0  0
  135.1186  136.3131  162.5921 H   0  0  0  0  0  0  0  0  0  0  0  0
  132.6813  135.9397  162.7093 H   0  0  0  0  0  0  0  0  0  0  0  0
  133.1565  135.1223  161.2064 H   0  0  0  0  0  0  0  0  0  0  0  0
  128.1217  136.7197  159.4990 H   0  0  0  0  0  0  0  0  0  0  0  0
  125.7208  136.0711  160.0448 H   0  0  0  0  0  0  0  0  0  0  0  0
  125.5067  134.1496  161.6884 H   0  0  0  0  0  0  0  0  0  0  0  0
  131.7007  130.1233  156.6689 H   0  0  0  0  0  0  0  0  0  0  0  0
  131.9383  128.9313  154.5314 H   0  0  0  0  0  0  0  0  0  0  0  0
  1  2  1  0
  1 30  1  0
  1 31  1  0
  2 29  2  0
  2  3  1  0
  3  4  2  0
  3 32  1  0
  4  5  1  0
  4 33  1  0
  5  6  1  0
  5 28  2  0
  6 26  1  0
  6  7  2  0
  7  8  1  0
  7 34  1  0
  8  9  1  0
  8 10  1  0
 10 11  1  0
 10 26  2  0
 11 12  1  0
 11 35  1  0
 12 13  1  1
 12 14  1  0
 12 21  1  0
 14 15  1  0
 14 36  1  0
 14 37  1  0
 15 20  1  0
 15 16  2  0
 16 17  1  0
 16 38  1  0
 17 18  1  0
 17 39  1  0
 17 40  1  0
 18 19  2  0
 18 41  1  0
 19 20  1  0
 19 42  1  0
 20 43  1  0
 20 44  1  0
 21 25  1  0
 21 22  2  0
 22 23  1  0
 22 45  1  0
 23 24  2  0
 23 46  1  0
 24 25  1  0
 24 47  1  0
 26 27  1  0
 28 29  1  0
 28 48  1  0
 29 49  1  0
M  CHG  1  26   1
M  END
>  <DOCK_score>  (1) 
-57.837994

>  <SMILES>  (1) 
Nc1ccc(-c2c[nH]c(N[C@@H](CC3=CCC=CC3)c3cccs3)[nH+]2)cc1

$$$$
