CC[C@@H]([NH2+]Cc1ccc(NC2CC2)cc1)c1cc[nH]n1
     RDKit          3D

 43 45  0  0  1  0  0  0  0  0999 V2000
  128.1963  135.9419  156.8743 C   0  0  0  0  0  0  0  0  0  0  0  0
  128.9456  134.7172  157.4031 C   0  0  0  0  0  0  0  0  0  0  0  0
  129.2420  134.9044  158.8924 C   0  0  1  0  0  0  0  0  0  0  0  0
  129.7758  134.0318  159.2691 H   0  0  0  0  0  0  0  0  0  0  0  0
  130.0697  136.1034  159.0800 N   0  0  0  0  0  0  0  0  0  0  0  0
  129.4842  136.9246  159.0484 H   0  0  0  0  0  0  0  0  0  0  0  0
  130.7598  136.1540  158.3456 H   0  0  0  0  0  0  0  0  0  0  0  0
  130.7451  136.0334  160.3826 C   0  0  0  0  0  0  0  0  0  0  0  0
  131.5942  137.2634  160.5750 C   0  0  0  0  0  0  0  0  0  0  0  0
  132.9106  137.2661  160.1514 C   0  0  0  0  0  0  0  0  0  0  0  0
  133.6915  138.3917  160.3257 C   0  0  0  0  0  0  0  0  0  0  0  0
  133.1530  139.5222  160.9274 C   0  0  0  0  0  0  0  0  0  0  0  0
  133.9401  140.6623  161.1057 N   0  0  0  0  0  0  0  0  0  0  0  0
  135.3349  140.6667  160.6580 C   0  0  0  0  0  0  0  0  0  0  0  0
  136.3739  140.0215  161.5773 C   0  0  0  0  0  0  0  0  0  0  0  0
  136.3220  141.5443  161.4304 C   0  0  0  0  0  0  0  0  0  0  0  0
  131.8319  139.5142  161.3564 C   0  0  0  0  0  0  0  0  0  0  0  0
  131.0551  138.3871  161.1743 C   0  0  0  0  0  0  0  0  0  0  0  0
  127.9469  135.0651  159.6460 C   0  0  0  0  0  0  0  0  0  0  0  0
  126.9092  134.1288  159.7022 C   0  0  0  0  0  0  0  0  0  0  0  0
  125.9258  134.6434  160.4763 C   0  0  0  0  0  0  0  0  0  0  0  0
  126.3270  135.8620  160.8951 N   0  0  0  0  0  0  0  0  0  0  0  0
  125.8235  136.4636  161.4654 H   0  0  0  0  0  0  0  0  0  0  0  0
  127.6014  136.1019  160.3652 N   0  0  0  0  0  0  0  0  0  0  0  0
  128.0659  135.8505  155.7960 H   0  0  0  0  0  0  0  0  0  0  0  0
  127.2196  136.0055  157.3542 H   0  0  0  0  0  0  0  0  0  0  0  0
  128.7694  136.8421  157.0959 H   0  0  0  0  0  0  0  0  0  0  0  0
  129.8823  134.6012  156.8580 H   0  0  0  0  0  0  0  0  0  0  0  0
  128.3316  133.8275  157.2638 H   0  0  0  0  0  0  0  0  0  0  0  0
  131.3776  135.1463  160.4167 H   0  0  0  0  0  0  0  0  0  0  0  0
  129.9995  135.9788  161.1759 H   0  0  0  0  0  0  0  0  0  0  0  0
  133.3284  136.3870  159.6834 H   0  0  0  0  0  0  0  0  0  0  0  0
  134.7194  138.3933  159.9944 H   0  0  0  0  0  0  0  0  0  0  0  0
  133.5620  141.4523  161.5224 H   0  0  0  0  0  0  0  0  0  0  0  0
  135.4839  140.5680  159.5828 H   0  0  0  0  0  0  0  0  0  0  0  0
  136.0197  139.5937  162.5151 H   0  0  0  0  0  0  0  0  0  0  0  0
  137.2067  139.4987  161.1069 H   0  0  0  0  0  0  0  0  0  0  0  0
  137.1205  142.0227  160.8633 H   0  0  0  0  0  0  0  0  0  0  0  0
  135.9334  142.1187  162.2713 H   0  0  0  0  0  0  0  0  0  0  0  0
  131.4115  140.3900  161.8285 H   0  0  0  0  0  0  0  0  0  0  0  0
  130.0267  138.3816  161.5039 H   0  0  0  0  0  0  0  0  0  0  0  0
  126.8952  133.1657  159.2138 H   0  0  0  0  0  0  0  0  0  0  0  0
  124.9880  134.1645  160.7164 H   0  0  0  0  0  0  0  0  0  0  0  0
  1  2  1  0
  1 25  1  0
  1 26  1  0
  1 27  1  0
  2  3  1  0
  2 28  1  0
  2 29  1  0
  3  4  1  1
  3  5  1  0
  3 19  1  0
  5  6  1  0
  5  7  1  0
  5  8  1  0
  8  9  1  0
  8 30  1  0
  8 31  1  0
  9 18  1  0
  9 10  2  0
 10 11  1  0
 10 32  1  0
 11 12  2  0
 11 33  1  0
 12 13  1  0
 12 17  1  0
 13 14  1  0
 13 34  1  0
 14 16  1  0
 14 15  1  0
 14 35  1  0
 15 16  1  0
 15 36  1  0
 15 37  1  0
 16 38  1  0
 16 39  1  0
 17 18  2  0
 17 40  1  0
 18 41  1  0
 19 24  2  0
 19 20  1  0
 20 21  2  0
 20 42  1  0
 21 22  1  0
 21 43  1  0
 22 23  1  0
 22 24  1  0
M  CHG  1   5   1
M  END
>  <DOCK_score>  (1) 
-41.772671

>  <SMILES>  (1) 
CC[C@@H]([NH2+]Cc1ccc(NC2CC2)cc1)c1cc[nH]n1

$$$$
