CC(C)=Cn1cc([C@H](Nc2[nH]cc(-c3ccc(N)cc3)[nH+]2)c2ccc(F)cc2)nn1
     RDKit          3D

 53 56  0  0  1  0  0  0  0  0999 V2000
  129.7438  141.6409  163.8707 C   0  0  0  0  0  0  0  0  0  0  0  0
  129.9938  140.6585  162.7555 C   0  0  0  0  0  0  0  0  0  0  0  0
  130.8865  141.0387  161.6023 C   0  0  0  0  0  0  0  0  0  0  0  0
  129.4316  139.4666  162.7887 C   0  0  0  0  0  0  0  0  0  0  0  0
  129.5702  138.5989  161.7040 N   0  0  0  0  0  0  0  0  0  0  0  0
  129.0469  137.3458  161.5871 C   0  0  0  0  0  0  0  0  0  0  0  0
  129.4299  136.8746  160.3814 C   0  0  0  0  0  0  0  0  0  0  0  0
  129.0811  135.5201  159.8202 C   0  0  2  0  0  0  0  0  0  0  0  0
  128.9647  134.8076  160.6367 H   0  0  0  0  0  0  0  0  0  0  0  0
  130.1530  135.0702  158.9286 N   0  0  0  0  0  0  0  0  0  0  0  0
  130.0551  133.8449  158.2918 C   0  0  0  0  0  0  0  0  0  0  0  0
  129.3994  132.7529  158.7708 N   0  0  0  0  0  0  0  0  0  0  0  0
  128.9209  132.6933  159.6125 H   0  0  0  0  0  0  0  0  0  0  0  0
  129.5409  131.7496  157.8415 C   0  0  0  0  0  0  0  0  0  0  0  0
  130.2781  132.2579  156.8234 C   0  0  0  0  0  0  0  0  0  0  0  0
  130.6847  131.5340  155.5939 C   0  0  0  0  0  0  0  0  0  0  0  0
  130.2815  132.0004  154.3436 C   0  0  0  0  0  0  0  0  0  0  0  0
  130.6649  131.3288  153.2020 C   0  0  0  0  0  0  0  0  0  0  0  0
  131.4431  130.1818  153.2973 C   0  0  0  0  0  0  0  0  0  0  0  0
  131.8255  129.5002  152.1395 N   0  0  0  0  0  0  0  0  0  0  0  0
  131.8421  129.7115  154.5434 C   0  0  0  0  0  0  0  0  0  0  0  0
  131.4657  130.3831  155.6875 C   0  0  0  0  0  0  0  0  0  0  0  0
  130.5739  133.5468  157.1255 N   0  0  0  0  0  0  0  0  0  0  0  0
  131.0893  134.1510  156.5684 H   0  0  0  0  0  0  0  0  0  0  0  0
  127.7909  135.6137  159.0472 C   0  0  0  0  0  0  0  0  0  0  0  0
  126.5849  135.3969  159.6875 C   0  0  0  0  0  0  0  0  0  0  0  0
  125.4008  135.4879  158.9810 C   0  0  0  0  0  0  0  0  0  0  0  0
  125.4231  135.7856  157.6289 C   0  0  0  0  0  0  0  0  0  0  0  0
  124.2663  135.8694  156.9360 F   0  0  0  0  0  0  0  0  0  0  0  0
  126.6317  135.9970  156.9875 C   0  0  0  0  0  0  0  0  0  0  0  0
  127.8144  135.9106  157.6972 C   0  0  0  0  0  0  0  0  0  0  0  0
  130.1666  137.8009  159.7669 N   0  0  0  0  0  0  0  0  0  0  0  0
  130.2712  138.8448  160.5134 N   0  0  0  0  0  0  0  0  0  0  0  0
  129.0791  141.1916  164.6085 H   0  0  0  0  0  0  0  0  0  0  0  0
  130.6904  141.9007  164.3448 H   0  0  0  0  0  0  0  0  0  0  0  0
  129.2814  142.5408  163.4653 H   0  0  0  0  0  0  0  0  0  0  0  0
  130.3001  141.0695  160.6839 H   0  0  0  0  0  0  0  0  0  0  0  0
  131.3222  142.0204  161.7885 H   0  0  0  0  0  0  0  0  0  0  0  0
  131.6825  140.3011  161.5007 H   0  0  0  0  0  0  0  0  0  0  0  0
  128.8675  139.1597  163.6571 H   0  0  0  0  0  0  0  0  0  0  0  0
  128.4427  136.8292  162.3181 H   0  0  0  0  0  0  0  0  0  0  0  0
  130.9314  135.6309  158.7845 H   0  0  0  0  0  0  0  0  0  0  0  0
  129.1414  130.7486  157.9095 H   0  0  0  0  0  0  0  0  0  0  0  0
  129.6727  132.8893  154.2690 H   0  0  0  0  0  0  0  0  0  0  0  0
  130.3565  131.6924  152.2328 H   0  0  0  0  0  0  0  0  0  0  0  0
  132.3692  128.6988  152.2059 H   0  0  0  0  0  0  0  0  0  0  0  0
  131.5479  129.8268  151.2702 H   0  0  0  0  0  0  0  0  0  0  0  0
  132.4468  128.8197  154.6155 H   0  0  0  0  0  0  0  0  0  0  0  0
  131.7760  130.0179  156.6553 H   0  0  0  0  0  0  0  0  0  0  0  0
  126.5681  135.1601  160.7411 H   0  0  0  0  0  0  0  0  0  0  0  0
  124.4585  135.3231  159.4823 H   0  0  0  0  0  0  0  0  0  0  0  0
  126.6503  136.2290  155.9329 H   0  0  0  0  0  0  0  0  0  0  0  0
  128.7573  136.0755  157.1971 H   0  0  0  0  0  0  0  0  0  0  0  0
  1  2  1  0
  1 34  1  0
  1 35  1  0
  1 36  1  0
  2  3  1  0
  2  4  2  0
  3 37  1  0
  3 38  1  0
  3 39  1  0
  4  5  1  0
  4 40  1  0
  5 33  1  0
  5  6  1  0
  6  7  2  0
  6 41  1  0
  7  8  1  0
  7 32  1  0
  8  9  1  1
  8 10  1  0
  8 25  1  0
 10 42  1  0
 11 10  1  0
 11 23  2  0
 11 12  1  0
 12 13  1  0
 12 14  1  0
 14 15  2  0
 14 43  1  0
 15 16  1  0
 15 23  1  0
 16 22  1  0
 16 17  2  0
 17 18  1  0
 17 44  1  0
 18 19  2  0
 18 45  1  0
 19 20  1  0
 19 21  1  0
 20 46  1  0
 20 47  1  0
 21 22  2  0
 21 48  1  0
 22 49  1  0
 23 24  1  0
 25 31  1  0
 25 26  2  0
 26 27  1  0
 26 50  1  0
 27 28  2  0
 27 51  1  0
 28 29  1  0
 28 30  1  0
 30 31  2  0
 30 52  1  0
 31 53  1  0
 32 33  2  0
M  CHG  1  23   1
M  END
>  <DOCK_score>  (1) 
-61.480198

>  <SMILES>  (1) 
CC(C)=Cn1cc([C@H](Nc2[nH]cc(-c3ccc(N)cc3)[nH+]2)c2ccc(F)cc2)nn1

$$$$
