CC[C@@H](CCO)N(c1[nH]c2c([nH+]1)CC2)C1C=C(CC2=CCCC2)CCCC1
     RDKit          3D

 63 66  0  0  1  0  0  0  0  0999 V2000
  129.8664  132.3845  162.6451 C   0  0  0  0  0  0  0  0  0  0  0  0
  129.0779  133.6683  162.9126 C   0  0  0  0  0  0  0  0  0  0  0  0
  128.5327  134.2163  161.5922 C   0  0  1  0  0  0  0  0  0  0  0  0
  127.8769  133.4759  161.1346 H   0  0  0  0  0  0  0  0  0  0  0  0
  127.7444  135.5000  161.8596 C   0  0  0  0  0  0  0  0  0  0  0  0
  126.5806  135.1961  162.8051 C   0  0  0  0  0  0  0  0  0  0  0  0
  125.8443  136.3951  163.0549 O   0  0  0  0  0  0  0  0  0  0  0  0
  129.6472  134.5074  160.6869 N   0  0  0  0  0  0  0  0  0  0  0  0
  129.7309  133.8662  159.4655 C   0  0  0  0  0  0  0  0  0  0  0  0
  130.2733  134.3701  158.3622 N   0  0  0  0  0  0  0  0  0  0  0  0
  130.6769  135.2480  158.2776 H   0  0  0  0  0  0  0  0  0  0  0  0
  130.1678  133.4380  157.3679 C   0  0  0  0  0  0  0  0  0  0  0  0
  129.5440  132.3690  157.8945 C   0  0  0  0  0  0  0  0  0  0  0  0
  129.2769  132.6455  159.1988 N   0  0  0  0  0  0  0  0  0  0  0  0
  128.8322  132.0542  159.8262 H   0  0  0  0  0  0  0  0  0  0  0  0
  129.6298  131.6620  156.5668 C   0  0  0  0  0  0  0  0  0  0  0  0
  130.3388  132.8798  155.9717 C   0  0  0  0  0  0  0  0  0  0  0  0
  130.6730  135.4781  161.0763 C   0  0  2  0  0  0  0  0  0  0  0  0
  130.2749  136.8572  160.5956 C   0  0  0  0  0  0  0  0  0  0  0  0
  130.9140  137.9046  161.0100 C   0  0  0  0  0  0  0  0  0  0  0  0
  130.5102  139.2714  160.5201 C   0  0  0  0  0  0  0  0  0  0  0  0
  130.1042  140.1259  161.6930 C   0  0  0  0  0  0  0  0  0  0  0  0
  130.2373  141.4235  161.7425 C   0  0  0  0  0  0  0  0  0  0  0  0
  129.7387  141.9717  163.0594 C   0  0  0  0  0  0  0  0  0  0  0  0
  128.8746  140.8338  163.6549 C   0  0  0  0  0  0  0  0  0  0  0  0
  129.4890  139.5931  162.9662 C   0  0  0  0  0  0  0  0  0  0  0  0
  132.0602  137.7642  161.9886 C   0  0  0  0  0  0  0  0  0  0  0  0
  133.2572  137.1553  161.2549 C   0  0  0  0  0  0  0  0  0  0  0  0
  133.1707  135.6393  161.2495 C   0  0  0  0  0  0  0  0  0  0  0  0
  132.0093  135.0988  160.4341 C   0  0  0  0  0  0  0  0  0  0  0  0
  129.2104  131.6440  162.1875 H   0  0  0  0  0  0  0  0  0  0  0  0
  130.6955  132.6011  161.9715 H   0  0  0  0  0  0  0  0  0  0  0  0
  130.2548  131.9940  163.5856 H   0  0  0  0  0  0  0  0  0  0  0  0
  129.7340  134.4088  163.3701 H   0  0  0  0  0  0  0  0  0  0  0  0
  128.2488  133.4517  163.5860 H   0  0  0  0  0  0  0  0  0  0  0  0
  128.4005  136.2406  162.3173 H   0  0  0  0  0  0  0  0  0  0  0  0
  127.3561  135.8906  160.9190 H   0  0  0  0  0  0  0  0  0  0  0  0
  125.9246  134.4556  162.3475 H   0  0  0  0  0  0  0  0  0  0  0  0
  126.9690  134.8056  163.7456 H   0  0  0  0  0  0  0  0  0  0  0  0
  125.4687  136.7987  162.2605 H   0  0  0  0  0  0  0  0  0  0  0  0
  130.2576  130.7715  156.5948 H   0  0  0  0  0  0  0  0  0  0  0  0
  128.6546  131.4721  156.1184 H   0  0  0  0  0  0  0  0  0  0  0  0
  131.3751  132.6986  155.6863 H   0  0  0  0  0  0  0  0  0  0  0  0
  129.7640  133.4028  155.2074 H   0  0  0  0  0  0  0  0  0  0  0  0
  130.7772  135.4847  162.1613 H   0  0  0  0  0  0  0  0  0  0  0  0
  129.4555  136.9679  159.9007 H   0  0  0  0  0  0  0  0  0  0  0  0
  129.6706  139.1772  159.8313 H   0  0  0  0  0  0  0  0  0  0  0  0
  131.3515  139.7363  160.0059 H   0  0  0  0  0  0  0  0  0  0  0  0
  130.6536  142.0255  160.9485 H   0  0  0  0  0  0  0  0  0  0  0  0
  130.5771  142.1996  163.7177 H   0  0  0  0  0  0  0  0  0  0  0  0
  129.1315  142.8617  162.8945 H   0  0  0  0  0  0  0  0  0  0  0  0
  127.8252  140.9518  163.3846 H   0  0  0  0  0  0  0  0  0  0  0  0
  128.9944  140.7803  164.7370 H   0  0  0  0  0  0  0  0  0  0  0  0
  128.7131  138.8631  162.7365 H   0  0  0  0  0  0  0  0  0  0  0  0
  130.2550  139.1455  163.5996 H   0  0  0  0  0  0  0  0  0  0  0  0
  132.3306  138.7454  162.3787 H   0  0  0  0  0  0  0  0  0  0  0  0
  131.7619  137.1133  162.8105 H   0  0  0  0  0  0  0  0  0  0  0  0
  133.2702  137.5178  160.2269 H   0  0  0  0  0  0  0  0  0  0  0  0
  134.1770  137.4598  161.7544 H   0  0  0  0  0  0  0  0  0  0  0  0
  134.0989  135.2387  160.8422 H   0  0  0  0  0  0  0  0  0  0  0  0
  133.0661  135.2925  162.2775 H   0  0  0  0  0  0  0  0  0  0  0  0
  132.0540  135.5135  159.4271 H   0  0  0  0  0  0  0  0  0  0  0  0
  132.0850  134.0128  160.3780 H   0  0  0  0  0  0  0  0  0  0  0  0
  1  2  1  0
  1 31  1  0
  1 32  1  0
  1 33  1  0
  2  3  1  0
  2 34  1  0
  2 35  1  0
  3  4  1  6
  3  5  1  0
  3  8  1  0
  5  6  1  0
  5 36  1  0
  5 37  1  0
  6  7  1  0
  6 38  1  0
  6 39  1  0
  7 40  1  0
  8 18  1  0
  9  8  1  0
  9 14  1  0
  9 10  2  0
 10 11  1  0
 10 12  1  0
 12 17  1  0
 12 13  2  0
 13 14  1  0
 13 16  1  0
 14 15  1  0
 16 17  1  0
 16 41  1  0
 16 42  1  0
 17 43  1  0
 17 44  1  0
 18 30  1  0
 18 19  1  0
 18 45  1  1
 19 20  2  0
 19 46  1  0
 20 21  1  0
 20 27  1  0
 21 22  1  0
 21 47  1  0
 21 48  1  0
 22 26  1  0
 22 23  2  0
 23 24  1  0
 23 49  1  0
 24 25  1  0
 24 50  1  0
 24 51  1  0
 25 26  1  0
 25 52  1  0
 25 53  1  0
 26 54  1  0
 26 55  1  0
 27 28  1  0
 27 56  1  0
 27 57  1  0
 28 29  1  0
 28 58  1  0
 28 59  1  0
 29 30  1  0
 29 60  1  0
 29 61  1  0
 30 62  1  0
 30 63  1  0
M  CHG  1  10   1
M  END
>  <DOCK_score>  (1) 
-43.733368

>  <SMILES>  (1) 
CC[C@@H](CCO)N(c1[nH]c2c([nH+]1)CC2)C1C=C(CC2=CCCC2)CCCC1

$$$$
