c1cncc(-c2c[nH]c(N[C@H](c3cccnc3)C3CCCCC3)[nH+]2)c1
     RDKit          3D

 49 52  0  0  1  0  0  0  0  0999 V2000
  130.2599  130.8636  153.5300 C   0  0  0  0  0  0  0  0  0  0  0  0
  131.2019  129.8553  153.6241 C   0  0  0  0  0  0  0  0  0  0  0  0
  131.8146  129.6012  154.7642 N   0  0  0  0  0  0  0  0  0  0  0  0
  131.5610  130.2898  155.8583 C   0  0  0  0  0  0  0  0  0  0  0  0
  130.6250  131.3220  155.8456 C   0  0  0  0  0  0  0  0  0  0  0  0
  130.3399  132.0963  157.0783 C   0  0  0  0  0  0  0  0  0  0  0  0
  129.8676  131.5931  158.2455 C   0  0  0  0  0  0  0  0  0  0  0  0
  129.7538  132.6483  159.1176 N   0  0  0  0  0  0  0  0  0  0  0  0
  129.4445  132.6040  160.0358 H   0  0  0  0  0  0  0  0  0  0  0  0
  130.1528  133.7679  158.4546 C   0  0  0  0  0  0  0  0  0  0  0  0
  130.1866  135.0478  158.9810 N   0  0  0  0  0  0  0  0  0  0  0  0
  129.7690  135.2818  160.3656 C   0  0  2  0  0  0  0  0  0  0  0  0
  130.1340  134.4715  160.9969 H   0  0  0  0  0  0  0  0  0  0  0  0
  128.2646  135.3337  160.4347 C   0  0  0  0  0  0  0  0  0  0  0  0
  127.5271  135.7853  159.3508 C   0  0  0  0  0  0  0  0  0  0  0  0
  126.1454  135.8159  159.4595 C   0  0  0  0  0  0  0  0  0  0  0  0
  125.5530  135.3981  160.6365 C   0  0  0  0  0  0  0  0  0  0  0  0
  126.2861  134.9747  161.6472 N   0  0  0  0  0  0  0  0  0  0  0  0
  127.6024  134.9265  161.5772 C   0  0  0  0  0  0  0  0  0  0  0  0
  130.3483  136.6104  160.8555 C   0  0  0  0  0  0  0  0  0  0  0  0
  129.8362  137.7476  159.9693 C   0  0  0  0  0  0  0  0  0  0  0  0
  130.4154  139.0763  160.4590 C   0  0  0  0  0  0  0  0  0  0  0  0
  131.9429  139.0235  160.3889 C   0  0  0  0  0  0  0  0  0  0  0  0
  132.4550  137.8864  161.2751 C   0  0  0  0  0  0  0  0  0  0  0  0
  131.8758  136.5576  160.7854 C   0  0  0  0  0  0  0  0  0  0  0  0
  130.5052  133.4335  157.2372 N   0  0  0  0  0  0  0  0  0  0  0  0
  130.8321  134.0445  156.5585 H   0  0  0  0  0  0  0  0  0  0  0  0
  129.9546  131.6121  154.6535 C   0  0  0  0  0  0  0  0  0  0  0  0
  129.7645  131.0621  152.5910 H   0  0  0  0  0  0  0  0  0  0  0  0
  131.4398  129.2668  152.7503 H   0  0  0  0  0  0  0  0  0  0  0  0
  132.0835  130.0524  156.7732 H   0  0  0  0  0  0  0  0  0  0  0  0
  129.6301  130.5598  158.4514 H   0  0  0  0  0  0  0  0  0  0  0  0
  130.4868  135.7899  158.4330 H   0  0  0  0  0  0  0  0  0  0  0  0
  128.0174  136.1052  158.4433 H   0  0  0  0  0  0  0  0  0  0  0  0
  125.5395  136.1613  158.6349 H   0  0  0  0  0  0  0  0  0  0  0  0
  124.4772  135.4192  160.7294 H   0  0  0  0  0  0  0  0  0  0  0  0
  128.1692  134.5690  162.4240 H   0  0  0  0  0  0  0  0  0  0  0  0
  130.0377  136.7844  161.8857 H   0  0  0  0  0  0  0  0  0  0  0  0
  130.1468  137.5735  158.9390 H   0  0  0  0  0  0  0  0  0  0  0  0
  128.7480  137.7852  160.0191 H   0  0  0  0  0  0  0  0  0  0  0  0
  130.1048  139.2504  161.4891 H   0  0  0  0  0  0  0  0  0  0  0  0
  130.0506  139.8866  159.8276 H   0  0  0  0  0  0  0  0  0  0  0  0
  132.3556  139.9701  160.7379 H   0  0  0  0  0  0  0  0  0  0  0  0
  132.2536  138.8495  159.3587 H   0  0  0  0  0  0  0  0  0  0  0  0
  132.1444  138.0604  162.3053 H   0  0  0  0  0  0  0  0  0  0  0  0
  133.5433  137.8487  161.2253 H   0  0  0  0  0  0  0  0  0  0  0  0
  132.2406  135.7474  161.4167 H   0  0  0  0  0  0  0  0  0  0  0  0
  132.1865  136.3836  159.7552 H   0  0  0  0  0  0  0  0  0  0  0  0
  129.2202  132.4027  154.6096 H   0  0  0  0  0  0  0  0  0  0  0  0
  1 28  2  0
  1  2  1  0
  1 29  1  0
  2  3  2  0
  2 30  1  0
  3  4  1  0
  4  5  2  0
  4 31  1  0
  5  6  1  0
  5 28  1  0
  6 26  1  0
  6  7  2  0
  7  8  1  0
  7 32  1  0
  8  9  1  0
  8 10  1  0
 10 11  1  0
 10 26  2  0
 11 12  1  0
 11 33  1  0
 12 13  1  1
 12 14  1  0
 12 20  1  0
 14 19  1  0
 14 15  2  0
 15 16  1  0
 15 34  1  0
 16 17  2  0
 16 35  1  0
 17 18  1  0
 17 36  1  0
 18 19  2  0
 19 37  1  0
 20 25  1  0
 20 21  1  0
 20 38  1  0
 21 22  1  0
 21 39  1  0
 21 40  1  0
 22 23  1  0
 22 41  1  0
 22 42  1  0
 23 24  1  0
 23 43  1  0
 23 44  1  0
 24 25  1  0
 24 45  1  0
 24 46  1  0
 25 47  1  0
 25 48  1  0
 26 27  1  0
 28 49  1  0
M  CHG  1  26   1
M  END
>  <DOCK_score>  (1) 
-52.075726

>  <SMILES>  (1) 
c1cncc(-c2c[nH]c(N[C@H](c3cccnc3)C3CCCCC3)[nH+]2)c1

$$$$
