CC1=CCC(NC(NC2CC=CC2)=[NH+]C[C@H](O)c2cccc(C#N)c2)CC1
     RDKit          3D

 56 58  0  0  1  0  0  0  0  0999 V2000
  130.3925  129.8333  158.3077 C   0  0  0  0  0  0  0  0  0  0  0  0
  130.4124  131.3122  158.5965 C   0  0  0  0  0  0  0  0  0  0  0  0
  131.5414  131.9364  158.4896 C   0  0  0  0  0  0  0  0  0  0  0  0
  131.7148  133.4076  158.7297 C   0  0  0  0  0  0  0  0  0  0  0  0
  130.5230  133.9557  159.5177 C   0  0  1  0  0  0  0  0  0  0  0  0
  130.5682  135.4199  159.5320 N   0  0  0  0  0  0  0  0  0  0  0  0
  130.0478  136.1133  160.5991 C   0  0  0  0  0  0  0  0  0  0  0  0
  130.5796  137.3308  160.9529 N   0  0  0  0  0  0  0  0  0  0  0  0
  131.7007  137.8891  160.1930 C   0  0  0  0  0  0  0  0  0  0  0  0
  132.9842  137.0522  160.4013 C   0  0  0  0  0  0  0  0  0  0  0  0
  134.1026  138.0674  160.4408 C   0  0  0  0  0  0  0  0  0  0  0  0
  133.6381  139.2709  160.6398 C   0  0  0  0  0  0  0  0  0  0  0  0
  132.1324  139.2589  160.7662 C   0  0  0  0  0  0  0  0  0  0  0  0
  129.0504  135.6165  161.2752 N   0  0  0  0  0  0  0  0  0  0  0  0
  128.6752  134.7575  161.0256 H   0  0  0  0  0  0  0  0  0  0  0  0
  128.4959  136.3553  162.4122 C   0  0  0  0  0  0  0  0  0  0  0  0
  127.3435  135.5576  163.0257 C   0  0  2  0  0  0  0  0  0  0  0  0
  127.6013  134.4987  163.0394 H   0  0  0  0  0  0  0  0  0  0  0  0
  126.1622  135.7503  162.2450 O   0  0  0  0  0  0  0  0  0  0  0  0
  127.0976  136.0329  164.4345 C   0  0  0  0  0  0  0  0  0  0  0  0
  126.7532  137.3528  164.6675 C   0  0  0  0  0  0  0  0  0  0  0  0
  126.5209  137.7964  165.9572 C   0  0  0  0  0  0  0  0  0  0  0  0
  126.6416  136.9267  167.0214 C   0  0  0  0  0  0  0  0  0  0  0  0
  126.9939  135.5951  166.7940 C   0  0  0  0  0  0  0  0  0  0  0  0
  127.1216  134.6870  167.8940 C   0  0  0  0  0  0  0  0  0  0  0  0
  127.2228  133.9666  168.7664 N   0  0  0  0  0  0  0  0  0  0  0  0
  127.2217  135.1528  165.4892 C   0  0  0  0  0  0  0  0  0  0  0  0
  129.2324  133.4863  158.8343 C   0  0  0  0  0  0  0  0  0  0  0  0
  129.1234  131.9686  158.9962 C   0  0  0  0  0  0  0  0  0  0  0  0
  130.1812  129.6724  157.2506 H   0  0  0  0  0  0  0  0  0  0  0  0
  131.3626  129.4019  158.5541 H   0  0  0  0  0  0  0  0  0  0  0  0
  129.6192  129.3560  158.9096 H   0  0  0  0  0  0  0  0  0  0  0  0
  132.4120  131.3633  158.2064 H   0  0  0  0  0  0  0  0  0  0  0  0
  131.7859  133.9271  157.7741 H   0  0  0  0  0  0  0  0  0  0  0  0
  132.6301  133.5710  159.2987 H   0  0  0  0  0  0  0  0  0  0  0  0
  130.5547  133.5781  160.5397 H   0  0  0  0  0  0  0  0  0  0  0  0
  130.9653  135.9001  158.7887 H   0  0  0  0  0  0  0  0  0  0  0  0
  130.2125  137.8200  161.7059 H   0  0  0  0  0  0  0  0  0  0  0  0
  131.4522  137.9686  159.1346 H   0  0  0  0  0  0  0  0  0  0  0  0
  132.9331  136.5068  161.3436 H   0  0  0  0  0  0  0  0  0  0  0  0
  133.1267  136.3623  159.5696 H   0  0  0  0  0  0  0  0  0  0  0  0
  135.1489  137.8287  160.3200 H   0  0  0  0  0  0  0  0  0  0  0  0
  134.2496  140.1588  160.7051 H   0  0  0  0  0  0  0  0  0  0  0  0
  131.6959  140.0694  160.1825 H   0  0  0  0  0  0  0  0  0  0  0  0
  131.8368  139.3432  161.8119 H   0  0  0  0  0  0  0  0  0  0  0  0
  129.2731  136.5057  163.1617 H   0  0  0  0  0  0  0  0  0  0  0  0
  128.1273  137.3229  162.0718 H   0  0  0  0  0  0  0  0  0  0  0  0
  126.2480  135.4657  161.3249 H   0  0  0  0  0  0  0  0  0  0  0  0
  126.6616  138.0389  163.8385 H   0  0  0  0  0  0  0  0  0  0  0  0
  126.2483  138.8268  166.1316 H   0  0  0  0  0  0  0  0  0  0  0  0
  126.4643  137.2754  168.0281 H   0  0  0  0  0  0  0  0  0  0  0  0
  127.4950  134.1240  165.3064 H   0  0  0  0  0  0  0  0  0  0  0  0
  129.2656  133.7404  157.7749 H   0  0  0  0  0  0  0  0  0  0  0  0
  128.3720  133.9672  159.2997 H   0  0  0  0  0  0  0  0  0  0  0  0
  128.3169  131.5950  158.3653 H   0  0  0  0  0  0  0  0  0  0  0  0
  128.9059  131.7331  160.0380 H   0  0  0  0  0  0  0  0  0  0  0  0
  1  2  1  0
  1 30  1  0
  1 31  1  0
  1 32  1  0
  2 29  1  0
  2  3  2  0
  3  4  1  0
  3 33  1  0
  4  5  1  0
  4 34  1  0
  4 35  1  0
  5  6  1  0
  5 28  1  0
  5 36  1  1
  6 37  1  0
  7  6  1  0
  7  8  1  0
  7 14  2  0
  8  9  1  0
  8 38  1  0
  9 13  1  0
  9 10  1  0
  9 39  1  0
 10 11  1  0
 10 40  1  0
 10 41  1  0
 11 12  2  0
 11 42  1  0
 12 13  1  0
 12 43  1  0
 13 44  1  0
 13 45  1  0
 14 15  1  0
 14 16  1  0
 16 17  1  0
 16 46  1  0
 16 47  1  0
 17 18  1  1
 17 19  1  0
 17 20  1  0
 19 48  1  0
 20 27  1  0
 20 21  2  0
 21 22  1  0
 21 49  1  0
 22 23  2  0
 22 50  1  0
 23 24  1  0
 23 51  1  0
 24 25  1  0
 24 27  2  0
 25 26  3  0
 27 52  1  0
 28 29  1  0
 28 53  1  0
 28 54  1  0
 29 55  1  0
 29 56  1  0
M  CHG  1  14   1
M  END
>  <DOCK_score>  (1) 
-46.332836

>  <SMILES>  (1) 
CC1=CCC(NC(NC2CC=CC2)=[NH+]C[C@H](O)c2cccc(C#N)c2)CC1

$$$$
