Fc1cccc([C@@H](Nc2[nH]cc(-c3ccc(Br)cc3)[nH+]2)c2cccc(-c3ccccc3)c2)c1
     RDKit          3D

 55 59  0  0  1  0  0  0  0  0999 V2000
  125.9775  134.7377  162.8699 F   0  0  0  0  0  0  0  0  0  0  0  0
  126.6298  135.1378  161.7565 C   0  0  0  0  0  0  0  0  0  0  0  0
  125.9155  135.4894  160.6234 C   0  0  0  0  0  0  0  0  0  0  0  0
  126.5839  135.8979  159.4852 C   0  0  0  0  0  0  0  0  0  0  0  0
  127.9653  135.9559  159.4772 C   0  0  0  0  0  0  0  0  0  0  0  0
  128.6791  135.6107  160.6095 C   0  0  0  0  0  0  0  0  0  0  0  0
  130.1845  135.6804  160.6011 C   0  0  1  0  0  0  0  0  0  0  0  0
  130.5867  134.9297  161.2815 H   0  0  0  0  0  0  0  0  0  0  0  0
  130.6777  135.4249  159.2455 N   0  0  0  0  0  0  0  0  0  0  0  0
  130.3951  134.2220  158.6213 C   0  0  0  0  0  0  0  0  0  0  0  0
  129.6680  133.2032  159.1557 N   0  0  0  0  0  0  0  0  0  0  0  0
  129.2583  133.1893  160.0347 H   0  0  0  0  0  0  0  0  0  0  0  0
  129.6217  132.1981  158.2203 C   0  0  0  0  0  0  0  0  0  0  0  0
  130.3214  132.6311  157.1424 C   0  0  0  0  0  0  0  0  0  0  0  0
  130.5426  131.8764  155.8846 C   0  0  0  0  0  0  0  0  0  0  0  0
  130.0892  132.3913  154.6713 C   0  0  0  0  0  0  0  0  0  0  0  0
  130.3026  131.6880  153.5034 C   0  0  0  0  0  0  0  0  0  0  0  0
  130.9552  130.4679  153.5368 C   0  0  0  0  0  0  0  0  0  0  0  0
  131.2366  129.5060  151.9333 Br  0  0  0  0  0  0  0  0  0  0  0  0
  131.4027  129.9496  154.7399 C   0  0  0  0  0  0  0  0  0  0  0  0
  131.1995  130.6476  155.9128 C   0  0  0  0  0  0  0  0  0  0  0  0
  130.7790  133.8787  157.4160 N   0  0  0  0  0  0  0  0  0  0  0  0
  131.3082  134.4277  156.8165 H   0  0  0  0  0  0  0  0  0  0  0  0
  130.6264  137.0505  161.0467 C   0  0  0  0  0  0  0  0  0  0  0  0
  129.6832  138.0048  161.3831 C   0  0  0  0  0  0  0  0  0  0  0  0
  130.0818  139.2641  161.7932 C   0  0  0  0  0  0  0  0  0  0  0  0
  131.4245  139.5751  161.8688 C   0  0  0  0  0  0  0  0  0  0  0  0
  132.3787  138.6179  161.5312 C   0  0  0  0  0  0  0  0  0  0  0  0
  133.8237  138.9464  161.6106 C   0  0  0  0  0  0  0  0  0  0  0  0
  134.7527  137.9493  161.9007 C   0  0  0  0  0  0  0  0  0  0  0  0
  136.0960  138.2594  161.9668 C   0  0  0  0  0  0  0  0  0  0  0  0
  136.5193  139.5595  161.7581 C   0  0  0  0  0  0  0  0  0  0  0  0
  135.6008  140.5546  161.4759 C   0  0  0  0  0  0  0  0  0  0  0  0
  134.2558  140.2546  161.4010 C   0  0  0  0  0  0  0  0  0  0  0  0
  131.9715  137.3490  161.1237 C   0  0  0  0  0  0  0  0  0  0  0  0
  128.0130  135.1961  161.7474 C   0  0  0  0  0  0  0  0  0  0  0  0
  124.8365  135.4446  160.6296 H   0  0  0  0  0  0  0  0  0  0  0  0
  126.0269  136.1726  158.6015 H   0  0  0  0  0  0  0  0  0  0  0  0
  128.4868  136.2757  158.5871 H   0  0  0  0  0  0  0  0  0  0  0  0
  131.2022  136.0987  158.7854 H   0  0  0  0  0  0  0  0  0  0  0  0
  129.1232  131.2456  158.3234 H   0  0  0  0  0  0  0  0  0  0  0  0
  129.5757  133.3411  154.6447 H   0  0  0  0  0  0  0  0  0  0  0  0
  129.9554  132.0880  152.5621 H   0  0  0  0  0  0  0  0  0  0  0  0
  131.9116  128.9972  154.7605 H   0  0  0  0  0  0  0  0  0  0  0  0
  131.5490  130.2423  156.8508 H   0  0  0  0  0  0  0  0  0  0  0  0
  128.6315  137.7655  161.3255 H   0  0  0  0  0  0  0  0  0  0  0  0
  129.3411  140.0052  162.0549 H   0  0  0  0  0  0  0  0  0  0  0  0
  131.7347  140.5587  162.1896 H   0  0  0  0  0  0  0  0  0  0  0  0
  134.4226  136.9349  162.0689 H   0  0  0  0  0  0  0  0  0  0  0  0
  136.8174  137.4862  162.1865 H   0  0  0  0  0  0  0  0  0  0  0  0
  137.5710  139.7986  161.8156 H   0  0  0  0  0  0  0  0  0  0  0  0
  135.9369  141.5680  161.3136 H   0  0  0  0  0  0  0  0  0  0  0  0
  133.5395  141.0320  161.1799 H   0  0  0  0  0  0  0  0  0  0  0  0
  132.7073  136.6018  160.8652 H   0  0  0  0  0  0  0  0  0  0  0  0
  128.5710  134.9221  162.6305 H   0  0  0  0  0  0  0  0  0  0  0  0
  1  2  1  0
  2 36  2  0
  2  3  1  0
  3  4  2  0
  3 37  1  0
  4  5  1  0
  4 38  1  0
  5  6  2  0
  5 39  1  0
  6  7  1  0
  6 36  1  0
  7  8  1  1
  7  9  1  0
  7 24  1  0
  9 40  1  0
 10  9  1  0
 10 22  2  0
 10 11  1  0
 11 12  1  0
 11 13  1  0
 13 14  2  0
 13 41  1  0
 14 15  1  0
 14 22  1  0
 15 21  1  0
 15 16  2  0
 16 17  1  0
 16 42  1  0
 17 18  2  0
 17 43  1  0
 18 19  1  0
 18 20  1  0
 20 21  2  0
 20 44  1  0
 21 45  1  0
 22 23  1  0
 24 35  1  0
 24 25  2  0
 25 26  1  0
 25 46  1  0
 26 27  2  0
 26 47  1  0
 27 28  1  0
 27 48  1  0
 28 29  1  0
 28 35  2  0
 29 34  1  0
 29 30  2  0
 30 31  1  0
 30 49  1  0
 31 32  2  0
 31 50  1  0
 32 33  1  0
 32 51  1  0
 33 34  2  0
 33 52  1  0
 34 53  1  0
 35 54  1  0
 36 55  1  0
M  CHG  1  22   1
M  END
>  <DOCK_score>  (1) 
-63.782761

>  <SMILES>  (1) 
Fc1cccc([C@@H](Nc2[nH]cc(-c3ccc(Br)cc3)[nH+]2)c2cccc(-c3ccccc3)c2)c1

$$$$
