Cc1[nH]c(Nc2ccccc2Nc2ccccc2N)[nH+]c1C
     RDKit          3D

 42 44  0  0  1  0  0  0  0  0999 V2000
  130.3880  130.2212  153.6442 C   0  0  0  0  0  0  0  0  0  0  0  0
  130.2893  131.5016  154.4327 C   0  0  0  0  0  0  0  0  0  0  0  0
  130.0352  131.6086  155.7647 N   0  0  0  0  0  0  0  0  0  0  0  0
  129.8857  130.8707  156.3764 H   0  0  0  0  0  0  0  0  0  0  0  0
  130.0278  132.9000  156.0837 C   0  0  0  0  0  0  0  0  0  0  0  0
  129.8045  133.4173  157.3463 N   0  0  0  0  0  0  0  0  0  0  0  0
  130.1718  132.6812  158.4798 C   0  0  0  0  0  0  0  0  0  0  0  0
  131.2437  131.8034  158.4218 C   0  0  0  0  0  0  0  0  0  0  0  0
  131.6075  131.0812  159.5431 C   0  0  0  0  0  0  0  0  0  0  0  0
  130.8986  131.2231  160.7220 C   0  0  0  0  0  0  0  0  0  0  0  0
  129.8253  132.0918  160.7878 C   0  0  0  0  0  0  0  0  0  0  0  0
  129.4565  132.8244  159.6690 C   0  0  0  0  0  0  0  0  0  0  0  0
  128.3707  133.7047  159.7333 N   0  0  0  0  0  0  0  0  0  0  0  0
  127.0958  133.2217  160.0518 C   0  0  0  0  0  0  0  0  0  0  0  0
  126.7390  131.9246  159.7141 C   0  0  0  0  0  0  0  0  0  0  0  0
  125.4796  131.4498  160.0296 C   0  0  0  0  0  0  0  0  0  0  0  0
  124.5723  132.2647  160.6813 C   0  0  0  0  0  0  0  0  0  0  0  0
  124.9194  133.5591  161.0217 C   0  0  0  0  0  0  0  0  0  0  0  0
  126.1826  134.0417  160.7147 C   0  0  0  0  0  0  0  0  0  0  0  0
  126.5382  135.3500  161.0636 N   0  0  0  0  0  0  0  0  0  0  0  0
  130.2651  133.6112  154.9849 N   0  0  0  0  0  0  0  0  0  0  0  0
  130.3109  134.5786  154.9324 H   0  0  0  0  0  0  0  0  0  0  0  0
  130.4359  132.7470  153.9483 C   0  0  0  0  0  0  0  0  0  0  0  0
  130.7292  133.1182  152.5175 C   0  0  0  0  0  0  0  0  0  0  0  0
  129.4036  129.9551  153.2586 H   0  0  0  0  0  0  0  0  0  0  0  0
  131.0788  130.3590  152.8124 H   0  0  0  0  0  0  0  0  0  0  0  0
  130.7526  129.4232  154.2909 H   0  0  0  0  0  0  0  0  0  0  0  0
  129.3935  134.2902  157.4471 H   0  0  0  0  0  0  0  0  0  0  0  0
  131.7968  131.6867  157.5015 H   0  0  0  0  0  0  0  0  0  0  0  0
  132.4453  130.4014  159.4974 H   0  0  0  0  0  0  0  0  0  0  0  0
  131.1845  130.6538  161.5940 H   0  0  0  0  0  0  0  0  0  0  0  0
  129.2741  132.2003  161.7101 H   0  0  0  0  0  0  0  0  0  0  0  0
  128.5013  134.6495  159.5571 H   0  0  0  0  0  0  0  0  0  0  0  0
  127.4450  131.2856  159.2044 H   0  0  0  0  0  0  0  0  0  0  0  0
  125.2034  130.4396  159.7660 H   0  0  0  0  0  0  0  0  0  0  0  0
  123.5894  131.8891  160.9247 H   0  0  0  0  0  0  0  0  0  0  0  0
  124.2081  134.1929  161.5303 H   0  0  0  0  0  0  0  0  0  0  0  0
  127.4207  135.6875  160.8443 H   0  0  0  0  0  0  0  0  0  0  0  0
  125.9020  135.9189  161.5245 H   0  0  0  0  0  0  0  0  0  0  0  0
  129.7920  133.2501  151.9769 H   0  0  0  0  0  0  0  0  0  0  0  0
  131.2971  134.0481  152.4925 H   0  0  0  0  0  0  0  0  0  0  0  0
  131.3107  132.3246  152.0482 H   0  0  0  0  0  0  0  0  0  0  0  0
  1  2  1  0
  1 25  1  0
  1 26  1  0
  1 27  1  0
  2 23  2  0
  2  3  1  0
  3  4  1  0
  3  5  1  0
  5  6  1  0
  5 21  2  0
  6  7  1  0
  6 28  1  0
  7 12  1  0
  7  8  2  0
  8  9  1  0
  8 29  1  0
  9 10  2  0
  9 30  1  0
 10 11  1  0
 10 31  1  0
 11 12  2  0
 11 32  1  0
 12 13  1  0
 13 14  1  0
 13 33  1  0
 14 19  1  0
 14 15  2  0
 15 16  1  0
 15 34  1  0
 16 17  2  0
 16 35  1  0
 17 18  1  0
 17 36  1  0
 18 19  2  0
 18 37  1  0
 19 20  1  0
 20 38  1  0
 20 39  1  0
 21 22  1  0
 21 23  1  0
 23 24  1  0
 24 40  1  0
 24 41  1  0
 24 42  1  0
M  CHG  1  21   1
M  END
>  <DOCK_score>  (1) 
-48.680645

>  <SMILES>  (1) 
Cc1[nH]c(Nc2ccccc2Nc2ccccc2N)[nH+]c1C

$$$$
