Fc1ccccc1C1=CC[NH+](C[C@H](Cc2ccccc2)Cc2cnn3ccncc23)CC1
     RDKit          3D

 60 64  0  0  1  0  0  0  0  0999 V2000
  126.1362  135.5486  160.5186 F   0  0  0  0  0  0  0  0  0  0  0  0
  125.9096  134.2446  160.2469 C   0  0  0  0  0  0  0  0  0  0  0  0
  124.6951  133.6697  160.5716 C   0  0  0  0  0  0  0  0  0  0  0  0
  124.4627  132.3354  160.2932 C   0  0  0  0  0  0  0  0  0  0  0  0
  125.4421  131.5671  159.6888 C   0  0  0  0  0  0  0  0  0  0  0  0
  126.6566  132.1291  159.3539 C   0  0  0  0  0  0  0  0  0  0  0  0
  126.9020  133.4734  159.6364 C   0  0  0  0  0  0  0  0  0  0  0  0
  128.2031  134.0801  159.2859 C   0  0  0  0  0  0  0  0  0  0  0  0
  128.2455  135.3601  158.9844 C   0  0  0  0  0  0  0  0  0  0  0  0
  129.5149  136.0694  158.6100 C   0  0  0  0  0  0  0  0  0  0  0  0
  130.6821  135.2913  159.0411 N   0  0  1  0  0  0  0  0  0  0  0  0
  131.5236  135.7129  158.6776 H   0  0  0  0  0  0  0  0  0  0  0  0
  130.7401  135.2642  160.5086 C   0  0  0  0  0  0  0  0  0  0  0  0
  131.3426  136.5746  161.0196 C   0  0  2  0  0  0  0  0  0  0  0  0
  130.9586  137.4060  160.4283 H   0  0  0  0  0  0  0  0  0  0  0  0
  132.8664  136.5191  160.8919 C   0  0  0  0  0  0  0  0  0  0  0  0
  133.4236  137.9191  160.9151 C   0  0  0  0  0  0  0  0  0  0  0  0
  133.5868  138.6177  159.7335 C   0  0  0  0  0  0  0  0  0  0  0  0
  134.0936  139.9037  159.7553 C   0  0  0  0  0  0  0  0  0  0  0  0
  134.4468  140.4871  160.9577 C   0  0  0  0  0  0  0  0  0  0  0  0
  134.2885  139.7865  162.1387 C   0  0  0  0  0  0  0  0  0  0  0  0
  133.7769  138.5025  162.1175 C   0  0  0  0  0  0  0  0  0  0  0  0
  130.9608  136.7733  162.4876 C   0  0  0  0  0  0  0  0  0  0  0  0
  129.4599  136.8279  162.6133 C   0  0  0  0  0  0  0  0  0  0  0  0
  128.5962  137.5421  161.7991 C   0  0  0  0  0  0  0  0  0  0  0  0
  127.3603  137.3453  162.2067 N   0  0  0  0  0  0  0  0  0  0  0  0
  127.3803  136.4957  163.3159 N   0  0  0  0  0  0  0  0  0  0  0  0
  126.4068  135.9728  164.1212 C   0  0  0  0  0  0  0  0  0  0  0  0
  126.7471  135.1535  165.1379 C   0  0  0  0  0  0  0  0  0  0  0  0
  128.0221  134.8385  165.3804 N   0  0  0  0  0  0  0  0  0  0  0  0
  128.9943  135.3139  164.6377 C   0  0  0  0  0  0  0  0  0  0  0  0
  128.6929  136.1717  163.5650 C   0  0  0  0  0  0  0  0  0  0  0  0
  130.5582  133.9178  158.5278 C   0  0  0  0  0  0  0  0  0  0  0  0
  129.4316  133.2124  159.2871 C   0  0  0  0  0  0  0  0  0  0  0  0
  123.9264  134.2639  161.0432 H   0  0  0  0  0  0  0  0  0  0  0  0
  123.5124  131.8906  160.5492 H   0  0  0  0  0  0  0  0  0  0  0  0
  125.2534  130.5256  159.4743 H   0  0  0  0  0  0  0  0  0  0  0  0
  127.4178  131.5286  158.8781 H   0  0  0  0  0  0  0  0  0  0  0  0
  127.3260  135.9262  159.0074 H   0  0  0  0  0  0  0  0  0  0  0  0
  129.5364  137.0477  159.0902 H   0  0  0  0  0  0  0  0  0  0  0  0
  129.5488  136.2010  157.5284 H   0  0  0  0  0  0  0  0  0  0  0  0
  131.3604  134.4285  160.8325 H   0  0  0  0  0  0  0  0  0  0  0  0
  129.7336  135.1465  160.9099 H   0  0  0  0  0  0  0  0  0  0  0  0
  133.2803  135.9494  161.7238 H   0  0  0  0  0  0  0  0  0  0  0  0
  133.1348  136.0367  159.9520 H   0  0  0  0  0  0  0  0  0  0  0  0
  133.3151  138.1603  158.7937 H   0  0  0  0  0  0  0  0  0  0  0  0
  134.2176  140.4509  158.8325 H   0  0  0  0  0  0  0  0  0  0  0  0
  134.8467  141.4901  160.9743 H   0  0  0  0  0  0  0  0  0  0  0  0
  134.5648  140.2422  163.0782 H   0  0  0  0  0  0  0  0  0  0  0  0
  133.6535  137.9549  163.0403 H   0  0  0  0  0  0  0  0  0  0  0  0
  131.3899  137.7067  162.8516 H   0  0  0  0  0  0  0  0  0  0  0  0
  131.3447  135.9419  163.0789 H   0  0  0  0  0  0  0  0  0  0  0  0
  128.8895  138.1585  160.9620 H   0  0  0  0  0  0  0  0  0  0  0  0
  125.3691  136.2141  163.9435 H   0  0  0  0  0  0  0  0  0  0  0  0
  125.9720  134.7440  165.7689 H   0  0  0  0  0  0  0  0  0  0  0  0
  130.0193  135.0476  164.8490 H   0  0  0  0  0  0  0  0  0  0  0  0
  130.3216  133.9448  157.4641 H   0  0  0  0  0  0  0  0  0  0  0  0
  131.4961  133.3841  158.6807 H   0  0  0  0  0  0  0  0  0  0  0  0
  129.2058  132.2628  158.8019 H   0  0  0  0  0  0  0  0  0  0  0  0
  129.7455  133.0294  160.3147 H   0  0  0  0  0  0  0  0  0  0  0  0
  1  2  1  0
  2  7  2  0
  2  3  1  0
  3  4  2  0
  3 35  1  0
  4  5  1  0
  4 36  1  0
  5  6  2  0
  5 37  1  0
  6  7  1  0
  6 38  1  0
  7  8  1  0
  8 34  1  0
  8  9  2  0
  9 10  1  0
  9 39  1  0
 10 11  1  0
 10 40  1  0
 10 41  1  0
 11 12  1  6
 11 13  1  0
 11 33  1  0
 13 14  1  0
 13 42  1  0
 13 43  1  0
 14 15  1  6
 14 16  1  0
 14 23  1  0
 16 17  1  0
 16 44  1  0
 16 45  1  0
 17 22  1  0
 17 18  2  0
 18 19  1  0
 18 46  1  0
 19 20  2  0
 19 47  1  0
 20 21  1  0
 20 48  1  0
 21 22  2  0
 21 49  1  0
 22 50  1  0
 23 24  1  0
 23 51  1  0
 23 52  1  0
 24 32  2  0
 24 25  1  0
 25 26  2  0
 25 53  1  0
 26 27  1  0
 27 32  1  0
 27 28  1  0
 28 29  2  0
 28 54  1  0
 29 30  1  0
 29 55  1  0
 30 31  2  0
 31 32  1  0
 31 56  1  0
 33 34  1  0
 33 57  1  0
 33 58  1  0
 34 59  1  0
 34 60  1  0
M  CHG  1  11   1
M  END
>  <DOCK_score>  (1) 
-47.49633

>  <SMILES>  (1) 
Fc1ccccc1C1=CC[NH+](C[C@H](Cc2ccccc2)Cc2cnn3ccncc23)CC1

$$$$
