C/C=C/C=C/CCC(C)=C[C@H](CCc1ccccc1)Nc1[nH]cc(-c2ccc(N)cc2)[nH+]1
     RDKit          3D

 67 69  0  0  1  0  0  0  0  0999 V2000
  128.7401  138.5213  167.1838 C   0  0  0  0  0  0  0  0  0  0  0  0
  128.2035  138.1514  165.8250 C   0  0  0  0  0  0  0  0  0  0  0  0
  127.7500  136.9227  165.6018 C   0  0  0  0  0  0  0  0  0  0  0  0
  127.2261  136.5615  164.2755 C   0  0  0  0  0  0  0  0  0  0  0  0
  126.7725  135.3328  164.0523 C   0  0  0  0  0  0  0  0  0  0  0  0
  126.2359  134.9627  162.6935 C   0  0  0  0  0  0  0  0  0  0  0  0
  127.0616  133.8118  162.1150 C   0  0  0  0  0  0  0  0  0  0  0  0
  128.5005  134.2408  161.9870 C   0  0  0  0  0  0  0  0  0  0  0  0
  129.4574  134.0190  163.1299 C   0  0  0  0  0  0  0  0  0  0  0  0
  128.9197  134.8064  160.8823 C   0  0  0  0  0  0  0  0  0  0  0  0
  130.3804  135.1353  160.7113 C   0  0  2  0  0  0  0  0  0  0  0  0
  130.9820  134.4197  161.2717 H   0  0  0  0  0  0  0  0  0  0  0  0
  130.6497  136.5478  161.2342 C   0  0  0  0  0  0  0  0  0  0  0  0
  132.1423  136.7062  161.5297 C   0  0  0  0  0  0  0  0  0  0  0  0
  132.4077  138.0975  162.0447 C   0  0  0  0  0  0  0  0  0  0  0  0
  132.7163  139.1145  161.1608 C   0  0  0  0  0  0  0  0  0  0  0  0
  132.9549  140.3917  161.6328 C   0  0  0  0  0  0  0  0  0  0  0  0
  132.8950  140.6496  162.9894 C   0  0  0  0  0  0  0  0  0  0  0  0
  132.5914  139.6315  163.8738 C   0  0  0  0  0  0  0  0  0  0  0  0
  132.3478  138.3555  163.4014 C   0  0  0  0  0  0  0  0  0  0  0  0
  130.7340  135.0646  159.2914 N   0  0  0  0  0  0  0  0  0  0  0  0
  130.5749  133.8776  158.5967 C   0  0  0  0  0  0  0  0  0  0  0  0
  130.0965  132.7140  159.1151 N   0  0  0  0  0  0  0  0  0  0  0  0
  129.8086  132.5678  160.0297 H   0  0  0  0  0  0  0  0  0  0  0  0
  130.0974  131.7835  158.1030 C   0  0  0  0  0  0  0  0  0  0  0  0
  130.5758  132.4058  156.9973 C   0  0  0  0  0  0  0  0  0  0  0  0
  130.7571  131.7911  155.6594 C   0  0  0  0  0  0  0  0  0  0  0  0
  130.6387  132.5721  154.5106 C   0  0  0  0  0  0  0  0  0  0  0  0
  130.8127  131.9997  153.2682 C   0  0  0  0  0  0  0  0  0  0  0  0
  131.0946  130.6430  153.1602 C   0  0  0  0  0  0  0  0  0  0  0  0
  131.2648  130.0642  151.9004 N   0  0  0  0  0  0  0  0  0  0  0  0
  131.2078  129.8615  154.3039 C   0  0  0  0  0  0  0  0  0  0  0  0
  131.0403  130.4308  155.5486 C   0  0  0  0  0  0  0  0  0  0  0  0
  130.8547  133.6910  157.3298 N   0  0  0  0  0  0  0  0  0  0  0  0
  131.2072  134.3641  156.7268 H   0  0  0  0  0  0  0  0  0  0  0  0
  129.5872  137.8798  167.4269 H   0  0  0  0  0  0  0  0  0  0  0  0
  129.0633  139.5623  167.1758 H   0  0  0  0  0  0  0  0  0  0  0  0
  127.9581  138.3894  167.9316 H   0  0  0  0  0  0  0  0  0  0  0  0
  128.1876  138.8851  165.0327 H   0  0  0  0  0  0  0  0  0  0  0  0
  127.7659  136.1890  166.3943 H   0  0  0  0  0  0  0  0  0  0  0  0
  127.2102  137.2952  163.4830 H   0  0  0  0  0  0  0  0  0  0  0  0
  126.7885  134.5990  164.8446 H   0  0  0  0  0  0  0  0  0  0  0  0
  126.3004  135.8254  162.0302 H   0  0  0  0  0  0  0  0  0  0  0  0
  125.1952  134.6527  162.7861 H   0  0  0  0  0  0  0  0  0  0  0  0
  126.6734  133.5443  161.1322 H   0  0  0  0  0  0  0  0  0  0  0  0
  126.9972  132.9493  162.7784 H   0  0  0  0  0  0  0  0  0  0  0  0
  129.8021  134.9816  163.5073 H   0  0  0  0  0  0  0  0  0  0  0  0
  128.9507  133.4763  163.9279 H   0  0  0  0  0  0  0  0  0  0  0  0
  130.3116  133.4385  162.7813 H   0  0  0  0  0  0  0  0  0  0  0  0
  128.2184  135.0370  160.0941 H   0  0  0  0  0  0  0  0  0  0  0  0
  130.0789  136.7118  162.1482 H   0  0  0  0  0  0  0  0  0  0  0  0
  130.3488  137.2771  160.4822 H   0  0  0  0  0  0  0  0  0  0  0  0
  132.4433  135.9769  162.2818 H   0  0  0  0  0  0  0  0  0  0  0  0
  132.7132  136.5423  160.6157 H   0  0  0  0  0  0  0  0  0  0  0  0
  132.7675  138.9121  160.1011 H   0  0  0  0  0  0  0  0  0  0  0  0
  133.1924  141.1871  160.9417 H   0  0  0  0  0  0  0  0  0  0  0  0
  133.0857  141.6467  163.3585 H   0  0  0  0  0  0  0  0  0  0  0  0
  132.5450  139.8329  164.9338 H   0  0  0  0  0  0  0  0  0  0  0  0
  132.1111  137.5599  164.0924 H   0  0  0  0  0  0  0  0  0  0  0  0
  131.0795  135.8493  158.8380 H   0  0  0  0  0  0  0  0  0  0  0  0
  129.7784  130.7542  158.1748 H   0  0  0  0  0  0  0  0  0  0  0  0
  130.4150  133.6253  154.5939 H   0  0  0  0  0  0  0  0  0  0  0  0
  130.7256  132.6052  152.3781 H   0  0  0  0  0  0  0  0  0  0  0  0
  131.4618  129.1175  151.8241 H   0  0  0  0  0  0  0  0  0  0  0  0
  131.1860  130.6089  151.1016 H   0  0  0  0  0  0  0  0  0  0  0  0
  131.4269  128.8075  154.2176 H   0  0  0  0  0  0  0  0  0  0  0  0
  131.1286  129.8231  156.4371 H   0  0  0  0  0  0  0  0  0  0  0  0
  1  2  1  0
  1 36  1  0
  1 37  1  0
  1 38  1  0
  2  3  2  0
  2 39  1  0
  3  4  1  0
  3 40  1  0
  4  5  2  0
  4 41  1  0
  5  6  1  0
  5 42  1  0
  6  7  1  0
  6 43  1  0
  6 44  1  0
  7  8  1  0
  7 45  1  0
  7 46  1  0
  8  9  1  0
  8 10  2  0
  9 47  1  0
  9 48  1  0
  9 49  1  0
 10 11  1  0
 10 50  1  0
 11 12  1  1
 11 13  1  0
 11 21  1  0
 13 14  1  0
 13 51  1  0
 13 52  1  0
 14 15  1  0
 14 53  1  0
 14 54  1  0
 15 20  1  0
 15 16  2  0
 16 17  1  0
 16 55  1  0
 17 18  2  0
 17 56  1  0
 18 19  1  0
 18 57  1  0
 19 20  2  0
 19 58  1  0
 20 59  1  0
 21 60  1  0
 22 21  1  0
 22 34  2  0
 22 23  1  0
 23 24  1  0
 23 25  1  0
 25 26  2  0
 25 61  1  0
 26 27  1  0
 26 34  1  0
 27 33  1  0
 27 28  2  0
 28 29  1  0
 28 62  1  0
 29 30  2  0
 29 63  1  0
 30 31  1  0
 30 32  1  0
 31 64  1  0
 31 65  1  0
 32 33  2  0
 32 66  1  0
 33 67  1  0
 34 35  1  0
M  CHG  1  34   1
M  END
>  <DOCK_score>  (1) 
-56.794235

>  <SMILES>  (1) 
C/C=C/C=C/CCC(C)=C[C@H](CCc1ccccc1)Nc1[nH]cc(-c2ccc(N)cc2)[nH+]1

$$$$
