C[C@@H]1CCC=C(c2ccc(COC(=O)c3c[nH]nc3C3CCC[NH2+]C3)cc2)C1
     RDKit          3D

 58 61  0  0  1  0  0  0  0  0999 V2000
  138.4890  135.8332  167.5007 C   0  0  0  0  0  0  0  0  0  0  0  0
  138.0163  135.3474  166.1290 C   0  0  2  0  0  0  0  0  0  0  0  0
  137.4645  134.4140  166.2413 H   0  0  0  0  0  0  0  0  0  0  0  0
  139.2281  135.1230  165.2161 C   0  0  0  0  0  0  0  0  0  0  0  0
  138.7462  134.4601  163.9238 C   0  0  0  0  0  0  0  0  0  0  0  0
  137.5755  135.2131  163.3624 C   0  0  0  0  0  0  0  0  0  0  0  0
  136.8570  136.0658  164.0517 C   0  0  0  0  0  0  0  0  0  0  0  0
  135.7242  136.7292  163.3723 C   0  0  0  0  0  0  0  0  0  0  0  0
  134.4249  136.5648  163.8535 C   0  0  0  0  0  0  0  0  0  0  0  0
  133.3729  137.1929  163.2191 C   0  0  0  0  0  0  0  0  0  0  0  0
  133.6027  137.9745  162.1010 C   0  0  0  0  0  0  0  0  0  0  0  0
  132.4481  138.6521  161.4090 C   0  0  0  0  0  0  0  0  0  0  0  0
  131.3501  137.7126  161.2671 O   0  0  0  0  0  0  0  0  0  0  0  0
  130.1033  138.2239  161.2690 C   0  0  0  0  0  0  0  0  0  0  0  0
  129.9382  139.4221  161.3859 O   0  0  0  0  0  0  0  0  0  0  0  0
  128.9408  137.3305  161.1292 C   0  0  0  0  0  0  0  0  0  0  0  0
  127.6828  137.5320  161.6630 C   0  0  0  0  0  0  0  0  0  0  0  0
  126.9204  136.4889  161.2989 N   0  0  0  0  0  0  0  0  0  0  0  0
  125.9866  136.3620  161.5288 H   0  0  0  0  0  0  0  0  0  0  0  0
  127.7009  135.6129  160.5363 N   0  0  0  0  0  0  0  0  0  0  0  0
  128.9046  136.1033  160.4290 C   0  0  0  0  0  0  0  0  0  0  0  0
  130.0553  135.4723  159.6880 C   0  0  1  0  0  0  0  0  0  0  0  0
  130.8338  134.5564  160.6370 C   0  0  0  0  0  0  0  0  0  0  0  0
  131.9521  133.8606  159.8559 C   0  0  0  0  0  0  0  0  0  0  0  0
  131.3444  133.0943  158.6791 C   0  0  0  0  0  0  0  0  0  0  0  0
  130.6364  134.0284  157.7955 N   0  0  0  0  0  0  0  0  0  0  0  0
  131.2742  134.7469  157.4871 H   0  0  0  0  0  0  0  0  0  0  0  0
  130.2827  133.5285  156.9935 H   0  0  0  0  0  0  0  0  0  0  0  0
  129.5177  134.6462  158.5176 C   0  0  0  0  0  0  0  0  0  0  0  0
  134.8879  138.1372  161.6156 C   0  0  0  0  0  0  0  0  0  0  0  0
  135.9495  137.5199  162.2448 C   0  0  0  0  0  0  0  0  0  0  0  0
  137.1168  136.4075  165.4899 C   0  0  0  0  0  0  0  0  0  0  0  0
  139.0342  136.7701  167.3862 H   0  0  0  0  0  0  0  0  0  0  0  0
  137.6259  135.9917  168.1472 H   0  0  0  0  0  0  0  0  0  0  0  0
  139.1436  135.0838  167.9458 H   0  0  0  0  0  0  0  0  0  0  0  0
  139.6944  136.0806  164.9846 H   0  0  0  0  0  0  0  0  0  0  0  0
  139.9487  134.4761  165.7162 H   0  0  0  0  0  0  0  0  0  0  0  0
  139.5568  134.4568  163.1953 H   0  0  0  0  0  0  0  0  0  0  0  0
  138.4456  133.4338  164.1346 H   0  0  0  0  0  0  0  0  0  0  0  0
  137.3093  135.0423  162.3298 H   0  0  0  0  0  0  0  0  0  0  0  0
  134.2436  135.9507  164.7232 H   0  0  0  0  0  0  0  0  0  0  0  0
  132.3673  137.0701  163.5932 H   0  0  0  0  0  0  0  0  0  0  0  0
  132.1207  139.5068  162.0009 H   0  0  0  0  0  0  0  0  0  0  0  0
  132.7646  138.9926  160.4231 H   0  0  0  0  0  0  0  0  0  0  0  0
  127.3697  138.3747  162.2613 H   0  0  0  0  0  0  0  0  0  0  0  0
  130.7167  136.2521  159.3106 H   0  0  0  0  0  0  0  0  0  0  0  0
  131.2665  135.1496  161.4427 H   0  0  0  0  0  0  0  0  0  0  0  0
  130.1605  133.8087  161.0560 H   0  0  0  0  0  0  0  0  0  0  0  0
  132.6531  134.6065  159.4813 H   0  0  0  0  0  0  0  0  0  0  0  0
  132.4762  133.1655  160.5119 H   0  0  0  0  0  0  0  0  0  0  0  0
  132.1379  132.5973  158.1209 H   0  0  0  0  0  0  0  0  0  0  0  0
  130.6433  132.3488  159.0547 H   0  0  0  0  0  0  0  0  0  0  0  0
  128.8561  133.8673  158.8966 H   0  0  0  0  0  0  0  0  0  0  0  0
  128.9628  135.2951  157.8400 H   0  0  0  0  0  0  0  0  0  0  0  0
  135.0609  138.7490  160.7426 H   0  0  0  0  0  0  0  0  0  0  0  0
  136.9525  137.6484  161.8654 H   0  0  0  0  0  0  0  0  0  0  0  0
  136.1698  136.4500  166.0281 H   0  0  0  0  0  0  0  0  0  0  0  0
  137.6068  137.3795  165.5476 H   0  0  0  0  0  0  0  0  0  0  0  0
  1  2  1  0
  1 33  1  0
  1 34  1  0
  1 35  1  0
  2  3  1  1
  2 32  1  0
  2  4  1  0
  4  5  1  0
  4 36  1  0
  4 37  1  0
  5  6  1  0
  5 38  1  0
  5 39  1  0
  6  7  2  0
  6 40  1  0
  7  8  1  0
  7 32  1  0
  8 31  1  0
  8  9  2  0
  9 10  1  0
  9 41  1  0
 10 11  2  0
 10 42  1  0
 11 12  1  0
 11 30  1  0
 12 13  1  0
 12 43  1  0
 12 44  1  0
 13 14  1  0
 14 15  2  0
 14 16  1  0
 16 21  1  0
 16 17  2  0
 17 18  1  0
 17 45  1  0
 18 19  1  0
 18 20  1  0
 20 21  2  0
 21 22  1  0
 22 29  1  0
 22 23  1  0
 22 46  1  6
 23 24  1  0
 23 47  1  0
 23 48  1  0
 24 25  1  0
 24 49  1  0
 24 50  1  0
 25 26  1  0
 25 51  1  0
 25 52  1  0
 26 27  1  0
 26 28  1  0
 26 29  1  0
 29 53  1  0
 29 54  1  0
 30 31  2  0
 30 55  1  0
 31 56  1  0
 32 57  1  0
 32 58  1  0
M  CHG  1  26   1
M  END
>  <DOCK_score>  (1) 
-41.645859

>  <SMILES>  (1) 
C[C@@H]1CCC=C(c2ccc(COC(=O)c3c[nH]nc3C3CCC[NH2+]C3)cc2)C1

$$$$
