CCC=C[C@@H](Nc1[nH]cc(-c2ccc(CC)cc2)[nH+]1)c1cccc(C)c1C
     RDKit          3D

 57 59  0  0  1  0  0  0  0  0999 V2000
  125.3878  135.0409  161.8097 C   0  0  0  0  0  0  0  0  0  0  0  0
  126.0320  134.1608  160.7370 C   0  0  0  0  0  0  0  0  0  0  0  0
  127.5321  134.2713  160.8306 C   0  0  0  0  0  0  0  0  0  0  0  0
  128.1652  135.1907  160.1451 C   0  0  0  0  0  0  0  0  0  0  0  0
  129.6652  135.3012  160.2387 C   0  0  1  0  0  0  0  0  0  0  0  0
  130.0440  134.5386  160.9192 H   0  0  0  0  0  0  0  0  0  0  0  0
  130.2530  135.1064  158.9110 N   0  0  0  0  0  0  0  0  0  0  0  0
  130.0470  133.9187  158.2302 C   0  0  0  0  0  0  0  0  0  0  0  0
  129.3260  132.8584  158.6863 N   0  0  0  0  0  0  0  0  0  0  0  0
  128.8676  132.7995  159.5391 H   0  0  0  0  0  0  0  0  0  0  0  0
  129.3666  131.8871  157.7157 C   0  0  0  0  0  0  0  0  0  0  0  0
  130.1106  132.3813  156.6953 C   0  0  0  0  0  0  0  0  0  0  0  0
  130.4278  131.6806  155.4270 C   0  0  0  0  0  0  0  0  0  0  0  0
  130.0317  132.2275  154.2078 C   0  0  0  0  0  0  0  0  0  0  0  0
  130.3300  131.5714  153.0309 C   0  0  0  0  0  0  0  0  0  0  0  0
  131.0209  130.3729  153.0600 C   0  0  0  0  0  0  0  0  0  0  0  0
  131.3438  129.6610  151.7716 C   0  0  0  0  0  0  0  0  0  0  0  0
  130.2012  128.7080  151.4152 C   0  0  0  0  0  0  0  0  0  0  0  0
  131.4115  129.8230  154.2672 C   0  0  0  0  0  0  0  0  0  0  0  0
  131.1236  130.4732  155.4500 C   0  0  0  0  0  0  0  0  0  0  0  0
  130.5186  133.6279  157.0424 N   0  0  0  0  0  0  0  0  0  0  0  0
  131.0695  134.2115  156.4976 H   0  0  0  0  0  0  0  0  0  0  0  0
  130.0369  136.6665  160.7573 C   0  0  0  0  0  0  0  0  0  0  0  0
  130.2469  137.7083  159.8729 C   0  0  0  0  0  0  0  0  0  0  0  0
  130.5879  138.9604  160.3486 C   0  0  0  0  0  0  0  0  0  0  0  0
  130.7182  139.1711  161.7091 C   0  0  0  0  0  0  0  0  0  0  0  0
  130.5074  138.1301  162.5928 C   0  0  0  0  0  0  0  0  0  0  0  0
  130.6489  138.3602  164.0754 C   0  0  0  0  0  0  0  0  0  0  0  0
  130.1626  136.8785  162.1173 C   0  0  0  0  0  0  0  0  0  0  0  0
  129.9277  135.7444  163.0815 C   0  0  0  0  0  0  0  0  0  0  0  0
  125.6859  136.0780  161.6560 H   0  0  0  0  0  0  0  0  0  0  0  0
  124.3028  134.9610  161.7420 H   0  0  0  0  0  0  0  0  0  0  0  0
  125.7154  134.7109  162.7955 H   0  0  0  0  0  0  0  0  0  0  0  0
  125.7044  134.4907  159.7512 H   0  0  0  0  0  0  0  0  0  0  0  0
  125.7339  133.1236  160.8907 H   0  0  0  0  0  0  0  0  0  0  0  0
  128.0851  133.5924  161.4628 H   0  0  0  0  0  0  0  0  0  0  0  0
  127.6122  135.8695  159.5128 H   0  0  0  0  0  0  0  0  0  0  0  0
  130.7865  135.8098  158.5089 H   0  0  0  0  0  0  0  0  0  0  0  0
  128.8959  130.9161  157.7571 H   0  0  0  0  0  0  0  0  0  0  0  0
  129.4921  133.1627  154.1841 H   0  0  0  0  0  0  0  0  0  0  0  0
  130.0232  131.9941  152.0855 H   0  0  0  0  0  0  0  0  0  0  0  0
  132.2665  129.0944  151.8907 H   0  0  0  0  0  0  0  0  0  0  0  0
  131.4676  130.3936  150.9731 H   0  0  0  0  0  0  0  0  0  0  0  0
  130.0770  127.9760  152.2133 H   0  0  0  0  0  0  0  0  0  0  0  0
  129.2782  129.2752  151.2957 H   0  0  0  0  0  0  0  0  0  0  0  0
  130.4347  128.1932  150.4832 H   0  0  0  0  0  0  0  0  0  0  0  0
  131.9465  128.8850  154.2841 H   0  0  0  0  0  0  0  0  0  0  0  0
  131.4332  130.0451  156.3920 H   0  0  0  0  0  0  0  0  0  0  0  0
  130.1448  137.5436  158.8105 H   0  0  0  0  0  0  0  0  0  0  0  0
  130.7522  139.7741  159.6576 H   0  0  0  0  0  0  0  0  0  0  0  0
  130.9844  140.1496  162.0809 H   0  0  0  0  0  0  0  0  0  0  0  0
  129.6877  138.6649  164.4892 H   0  0  0  0  0  0  0  0  0  0  0  0
  130.9757  137.4383  164.5566 H   0  0  0  0  0  0  0  0  0  0  0  0
  131.3857  139.1436  164.2529 H   0  0  0  0  0  0  0  0  0  0  0  0
  130.8661  135.2200  163.2612 H   0  0  0  0  0  0  0  0  0  0  0  0
  129.5469  136.1409  164.0228 H   0  0  0  0  0  0  0  0  0  0  0  0
  129.2000  135.0523  162.6580 H   0  0  0  0  0  0  0  0  0  0  0  0
  1  2  1  0
  1 31  1  0
  1 32  1  0
  1 33  1  0
  2  3  1  0
  2 34  1  0
  2 35  1  0
  3  4  2  0
  3 36  1  0
  4  5  1  0
  4 37  1  0
  5  6  1  1
  5  7  1  0
  5 23  1  0
  7 38  1  0
  8  7  1  0
  8 21  2  0
  8  9  1  0
  9 10  1  0
  9 11  1  0
 11 12  2  0
 11 39  1  0
 12 13  1  0
 12 21  1  0
 13 20  1  0
 13 14  2  0
 14 15  1  0
 14 40  1  0
 15 16  2  0
 15 41  1  0
 16 17  1  0
 16 19  1  0
 17 18  1  0
 17 42  1  0
 17 43  1  0
 18 44  1  0
 18 45  1  0
 18 46  1  0
 19 20  2  0
 19 47  1  0
 20 48  1  0
 21 22  1  0
 23 29  1  0
 23 24  2  0
 24 25  1  0
 24 49  1  0
 25 26  2  0
 25 50  1  0
 26 27  1  0
 26 51  1  0
 27 28  1  0
 27 29  2  0
 28 52  1  0
 28 53  1  0
 28 54  1  0
 29 30  1  0
 30 55  1  0
 30 56  1  0
 30 57  1  0
M  CHG  1  21   1
M  END
>  <DOCK_score>  (1) 
-58.468246

>  <SMILES>  (1) 
CCC=C[C@@H](Nc1[nH]cc(-c2ccc(CC)cc2)[nH+]1)c1cccc(C)c1C

$$$$
