Cc1ccc2c(C[C@H]([NH2+]Cc3cn(-c4ccc(F)cc4)nc3C)c3cnn4ccccc34)c[nH]c2c1
     RDKit          3D

 64 69  0  0  1  0  0  0  0  0999 V2000
  129.2408  142.3999  164.7965 C   0  0  0  0  0  0  0  0  0  0  0  0
  129.2052  141.0751  164.0789 C   0  0  0  0  0  0  0  0  0  0  0  0
  130.3950  140.4460  163.7384 C   0  0  0  0  0  0  0  0  0  0  0  0
  130.3833  139.2448  163.0876 C   0  0  0  0  0  0  0  0  0  0  0  0
  129.1652  138.6451  162.7613 C   0  0  0  0  0  0  0  0  0  0  0  0
  128.7922  137.3999  162.0859 C   0  0  0  0  0  0  0  0  0  0  0  0
  129.7353  136.3666  161.5256 C   0  0  0  0  0  0  0  0  0  0  0  0
  130.0547  136.7047  160.0680 C   0  0  2  0  0  0  0  0  0  0  0  0
  129.1509  137.0556  159.5699 H   0  0  0  0  0  0  0  0  0  0  0  0
  130.5554  135.5042  159.3853 N   0  0  0  0  0  0  0  0  0  0  0  0
  131.1681  134.9957  160.0052 H   0  0  0  0  0  0  0  0  0  0  0  0
  131.0644  135.7757  158.5575 H   0  0  0  0  0  0  0  0  0  0  0  0
  129.4232  134.6487  159.0057 C   0  0  0  0  0  0  0  0  0  0  0  0
  129.9368  133.4172  158.3054 C   0  0  0  0  0  0  0  0  0  0  0  0
  130.1447  133.2865  156.9744 C   0  0  0  0  0  0  0  0  0  0  0  0
  130.6035  132.0344  156.7508 N   0  0  0  0  0  0  0  0  0  0  0  0
  130.9405  131.4894  155.5032 C   0  0  0  0  0  0  0  0  0  0  0  0
  131.4070  130.1847  155.4179 C   0  0  0  0  0  0  0  0  0  0  0  0
  131.7348  129.6484  154.1882 C   0  0  0  0  0  0  0  0  0  0  0  0
  131.6070  130.4144  153.0415 C   0  0  0  0  0  0  0  0  0  0  0  0
  131.9325  129.8898  151.8399 F   0  0  0  0  0  0  0  0  0  0  0  0
  131.1464  131.7178  153.1253 C   0  0  0  0  0  0  0  0  0  0  0  0
  130.8134  132.2560  154.3528 C   0  0  0  0  0  0  0  0  0  0  0  0
  130.6882  131.3798  157.9864 N   0  0  0  0  0  0  0  0  0  0  0  0
  130.2886  132.2090  158.9169 C   0  0  0  0  0  0  0  0  0  0  0  0
  130.2190  131.9131  160.3930 C   0  0  0  0  0  0  0  0  0  0  0  0
  131.1053  137.7841  160.0214 C   0  0  0  0  0  0  0  0  0  0  0  0
  130.9684  139.0352  159.4421 C   0  0  0  0  0  0  0  0  0  0  0  0
  132.0899  139.7038  159.5967 N   0  0  0  0  0  0  0  0  0  0  0  0
  133.0049  138.9014  160.2896 N   0  0  0  0  0  0  0  0  0  0  0  0
  134.2897  139.1133  160.7001 C   0  0  0  0  0  0  0  0  0  0  0  0
  134.9612  138.1595  161.3788 C   0  0  0  0  0  0  0  0  0  0  0  0
  134.3521  136.9263  161.6634 C   0  0  0  0  0  0  0  0  0  0  0  0
  133.0736  136.6987  161.2569 C   0  0  0  0  0  0  0  0  0  0  0  0
  132.3850  137.7078  160.5567 C   0  0  0  0  0  0  0  0  0  0  0  0
  127.4508  137.3567  162.0556 C   0  0  0  0  0  0  0  0  0  0  0  0
  126.9344  138.4681  162.6640 N   0  0  0  0  0  0  0  0  0  0  0  0
  125.9889  138.6588  162.7664 H   0  0  0  0  0  0  0  0  0  0  0  0
  127.9568  139.2786  163.1040 C   0  0  0  0  0  0  0  0  0  0  0  0
  127.9926  140.5011  163.7669 C   0  0  0  0  0  0  0  0  0  0  0  0
  129.2486  142.2296  165.8732 H   0  0  0  0  0  0  0  0  0  0  0  0
  130.1394  142.9453  164.5083 H   0  0  0  0  0  0  0  0  0  0  0  0
  128.3600  142.9828  164.5273 H   0  0  0  0  0  0  0  0  0  0  0  0
  131.3373  140.9094  163.9907 H   0  0  0  0  0  0  0  0  0  0  0  0
  131.3127  138.7610  162.8261 H   0  0  0  0  0  0  0  0  0  0  0  0
  129.2685  135.3830  161.5766 H   0  0  0  0  0  0  0  0  0  0  0  0
  130.6568  136.3621  162.1079 H   0  0  0  0  0  0  0  0  0  0  0  0
  128.7613  135.1981  158.3361 H   0  0  0  0  0  0  0  0  0  0  0  0
  128.8734  134.3554  159.9000 H   0  0  0  0  0  0  0  0  0  0  0  0
  129.9728  134.0452  156.2254 H   0  0  0  0  0  0  0  0  0  0  0  0
  131.5103  129.5882  156.3123 H   0  0  0  0  0  0  0  0  0  0  0  0
  132.0943  128.6322  154.1210 H   0  0  0  0  0  0  0  0  0  0  0  0
  131.0477  132.3138  152.2300 H   0  0  0  0  0  0  0  0  0  0  0  0
  130.4543  133.2724  154.4177 H   0  0  0  0  0  0  0  0  0  0  0  0
  131.1660  132.1797  160.8621 H   0  0  0  0  0  0  0  0  0  0  0  0
  129.4143  132.4949  160.8427 H   0  0  0  0  0  0  0  0  0  0  0  0
  130.0261  130.8506  160.5418 H   0  0  0  0  0  0  0  0  0  0  0  0
  130.0830  139.4023  158.9442 H   0  0  0  0  0  0  0  0  0  0  0  0
  134.7697  140.0575  160.4891 H   0  0  0  0  0  0  0  0  0  0  0  0
  135.9759  138.3436  161.6999 H   0  0  0  0  0  0  0  0  0  0  0  0
  134.8948  136.1635  162.2018 H   0  0  0  0  0  0  0  0  0  0  0  0
  132.5929  135.7552  161.4684 H   0  0  0  0  0  0  0  0  0  0  0  0
  126.8659  136.5614  161.6175 H   0  0  0  0  0  0  0  0  0  0  0  0
  127.0724  140.9983  164.0364 H   0  0  0  0  0  0  0  0  0  0  0  0
  1  2  1  0
  1 41  1  0
  1 42  1  0
  1 43  1  0
  2 40  2  0
  2  3  1  0
  3  4  2  0
  3 44  1  0
  4  5  1  0
  4 45  1  0
  5 39  2  0
  5  6  1  0
  6  7  1  0
  6 36  2  0
  7  8  1  0
  7 46  1  0
  7 47  1  0
  8  9  1  6
  8 10  1  0
  8 27  1  0
 10 11  1  0
 10 12  1  0
 10 13  1  0
 13 14  1  0
 13 48  1  0
 13 49  1  0
 14 25  1  0
 14 15  2  0
 15 16  1  0
 15 50  1  0
 16 17  1  0
 16 24  1  0
 17 23  1  0
 17 18  2  0
 18 19  1  0
 18 51  1  0
 19 20  2  0
 19 52  1  0
 20 21  1  0
 20 22  1  0
 22 23  2  0
 22 53  1  0
 23 54  1  0
 24 25  2  0
 25 26  1  0
 26 55  1  0
 26 56  1  0
 26 57  1  0
 27 35  2  0
 27 28  1  0
 28 29  2  0
 28 58  1  0
 29 30  1  0
 30 35  1  0
 30 31  1  0
 31 32  2  0
 31 59  1  0
 32 33  1  0
 32 60  1  0
 33 34  2  0
 33 61  1  0
 34 35  1  0
 34 62  1  0
 36 37  1  0
 36 63  1  0
 37 38  1  0
 37 39  1  0
 39 40  1  0
 40 64  1  0
M  CHG  1  10   1
M  END
>  <DOCK_score>  (1) 
-53.14983

>  <SMILES>  (1) 
Cc1ccc2c(C[C@H]([NH2+]Cc3cn(-c4ccc(F)cc4)nc3C)c3cnn4ccccc34)c[nH]c2c1

$$$$
