CC(Cc1c[nH]c2ccc(O)cc12)[NH2+]C1=CCN([C@H](Cc2ccccc2)C(F)F)CC1
     RDKit          3D

 61 64  0  0  1  0  0  0  0  0999 V2000
  128.5379  136.8165  160.7089 C   0  0  0  0  0  0  0  0  0  0  0  0
  129.2359  136.6944  159.3529 C   0  0  2  0  0  0  0  0  0  0  0  0
  128.3248  135.9491  158.3755 C   0  0  0  0  0  0  0  0  0  0  0  0
  128.0291  134.5730  158.9142 C   0  0  0  0  0  0  0  0  0  0  0  0
  128.7427  133.4581  158.6911 C   0  0  0  0  0  0  0  0  0  0  0  0
  128.1711  132.4001  159.3433 N   0  0  0  0  0  0  0  0  0  0  0  0
  128.5075  131.4904  159.3316 H   0  0  0  0  0  0  0  0  0  0  0  0
  127.0454  132.8201  160.0202 C   0  0  0  0  0  0  0  0  0  0  0  0
  126.1147  132.1681  160.8225 C   0  0  0  0  0  0  0  0  0  0  0  0
  125.0781  132.8759  161.3885 C   0  0  0  0  0  0  0  0  0  0  0  0
  124.9409  134.2420  161.1546 C   0  0  0  0  0  0  0  0  0  0  0  0
  123.9061  134.9242  161.7140 O   0  0  0  0  0  0  0  0  0  0  0  0
  125.8513  134.9062  160.3575 C   0  0  0  0  0  0  0  0  0  0  0  0
  126.9120  134.2000  159.7855 C   0  0  0  0  0  0  0  0  0  0  0  0
  130.4928  135.9511  159.5143 N   0  0  0  0  0  0  0  0  0  0  0  0
  130.9531  135.8707  158.6201 H   0  0  0  0  0  0  0  0  0  0  0  0
  130.2948  135.0297  159.8749 H   0  0  0  0  0  0  0  0  0  0  0  0
  131.3254  136.6320  160.4075 C   0  0  0  0  0  0  0  0  0  0  0  0
  131.6977  136.0262  161.4936 C   0  0  0  0  0  0  0  0  0  0  0  0
  132.5825  136.6593  162.5282 C   0  0  0  0  0  0  0  0  0  0  0  0
  133.2647  137.8327  161.9700 N   0  0  0  0  0  0  0  0  0  0  0  0
  134.0255  138.5456  163.0049 C   0  0  2  0  0  0  0  0  0  0  0  0
  134.5088  137.8233  163.6629 H   0  0  0  0  0  0  0  0  0  0  0  0
  133.0760  139.4243  163.8217 C   0  0  0  0  0  0  0  0  0  0  0  0
  133.7157  139.7610  165.1440 C   0  0  0  0  0  0  0  0  0  0  0  0
  133.5160  138.9394  166.2375 C   0  0  0  0  0  0  0  0  0  0  0  0
  134.1068  139.2457  167.4492 C   0  0  0  0  0  0  0  0  0  0  0  0
  134.8885  140.3792  167.5700 C   0  0  0  0  0  0  0  0  0  0  0  0
  135.0840  141.2038  166.4777 C   0  0  0  0  0  0  0  0  0  0  0  0
  134.4976  140.8946  165.2648 C   0  0  0  0  0  0  0  0  0  0  0  0
  135.0893  139.4231  162.3422 C   0  0  0  0  0  0  0  0  0  0  0  0
  135.6591  138.7334  161.2667 F   0  0  0  0  0  0  0  0  0  0  0  0
  134.4978  140.6031  161.8784 F   0  0  0  0  0  0  0  0  0  0  0  0
  132.2918  138.7268  161.3203 C   0  0  0  0  0  0  0  0  0  0  0  0
  131.7502  138.0332  160.0677 C   0  0  0  0  0  0  0  0  0  0  0  0
  128.3240  135.8211  161.0983 H   0  0  0  0  0  0  0  0  0  0  0  0
  129.1870  137.3473  161.4053 H   0  0  0  0  0  0  0  0  0  0  0  0
  127.6053  137.3678  160.5890 H   0  0  0  0  0  0  0  0  0  0  0  0
  129.4498  137.6897  158.9633 H   0  0  0  0  0  0  0  0  0  0  0  0
  127.3922  136.5004  158.2557 H   0  0  0  0  0  0  0  0  0  0  0  0
  128.8221  135.8620  157.4095 H   0  0  0  0  0  0  0  0  0  0  0  0
  129.6354  133.4042  158.0857 H   0  0  0  0  0  0  0  0  0  0  0  0
  126.2122  131.1092  161.0115 H   0  0  0  0  0  0  0  0  0  0  0  0
  124.3605  132.3655  162.0136 H   0  0  0  0  0  0  0  0  0  0  0  0
  123.8924  135.8662  161.4961 H   0  0  0  0  0  0  0  0  0  0  0  0
  125.7443  135.9657  160.1774 H   0  0  0  0  0  0  0  0  0  0  0  0
  131.3542  135.0161  161.6611 H   0  0  0  0  0  0  0  0  0  0  0  0
  131.9772  136.9692  163.3801 H   0  0  0  0  0  0  0  0  0  0  0  0
  133.3267  135.9348  162.8589 H   0  0  0  0  0  0  0  0  0  0  0  0
  132.8695  140.3434  163.2734 H   0  0  0  0  0  0  0  0  0  0  0  0
  132.1434  138.8876  163.9955 H   0  0  0  0  0  0  0  0  0  0  0  0
  132.9015  138.0561  166.1443 H   0  0  0  0  0  0  0  0  0  0  0  0
  133.9538  138.6018  168.3026 H   0  0  0  0  0  0  0  0  0  0  0  0
  135.3465  140.6210  168.5178 H   0  0  0  0  0  0  0  0  0  0  0  0
  135.6946  142.0896  166.5722 H   0  0  0  0  0  0  0  0  0  0  0  0
  134.6499  141.5389  164.4115 H   0  0  0  0  0  0  0  0  0  0  0  0
  135.8641  139.6666  163.0692 H   0  0  0  0  0  0  0  0  0  0  0  0
  132.7816  139.6593  161.0399 H   0  0  0  0  0  0  0  0  0  0  0  0
  131.4713  138.9360  162.0068 H   0  0  0  0  0  0  0  0  0  0  0  0
  130.8938  138.5896  159.6867 H   0  0  0  0  0  0  0  0  0  0  0  0
  132.5290  138.0012  159.3057 H   0  0  0  0  0  0  0  0  0  0  0  0
  1  2  1  0
  1 36  1  0
  1 37  1  0
  1 38  1  0
  2  3  1  0
  2 15  1  0
  2 39  1  6
  3  4  1  0
  3 40  1  0
  3 41  1  0
  4 14  1  0
  4  5  2  0
  5  6  1  0
  5 42  1  0
  6  7  1  0
  6  8  1  0
  8 14  2  0
  8  9  1  0
  9 10  2  0
  9 43  1  0
 10 11  1  0
 10 44  1  0
 11 12  1  0
 11 13  2  0
 12 45  1  0
 13 14  1  0
 13 46  1  0
 15 16  1  0
 15 17  1  0
 15 18  1  0
 18 35  1  0
 18 19  2  0
 19 20  1  0
 19 47  1  0
 20 21  1  0
 20 48  1  0
 20 49  1  0
 21 22  1  0
 21 34  1  0
 22 23  1  1
 22 24  1  0
 22 31  1  0
 24 25  1  0
 24 50  1  0
 24 51  1  0
 25 30  1  0
 25 26  2  0
 26 27  1  0
 26 52  1  0
 27 28  2  0
 27 53  1  0
 28 29  1  0
 28 54  1  0
 29 30  2  0
 29 55  1  0
 30 56  1  0
 31 32  1  0
 31 33  1  0
 31 57  1  0
 34 35  1  0
 34 58  1  0
 34 59  1  0
 35 60  1  0
 35 61  1  0
M  CHG  1  15   1
M  END
>  <DOCK_score>  (1) 
-44.463673

>  <SMILES>  (1) 
CC(Cc1c[nH]c2ccc(O)cc12)[NH2+]C1=CCN([C@H](Cc2ccccc2)C(F)F)CC1

$$$$
