Brc1ccc([C@H](Nc2[nH]cc(-c3ccccc3)[nH+]2)c2ccccc2)cc1
     RDKit          3D

 45 48  0  0  1  0  0  0  0  0999 V2000
  131.1210  141.1648  161.8724 Br  0  0  0  0  0  0  0  0  0  0  0  0
  130.7084  139.4039  161.3202 C   0  0  0  0  0  0  0  0  0  0  0  0
  130.6051  138.3914  162.2569 C   0  0  0  0  0  0  0  0  0  0  0  0
  130.3039  137.1043  161.8527 C   0  0  0  0  0  0  0  0  0  0  0  0
  130.1060  136.8290  160.5125 C   0  0  0  0  0  0  0  0  0  0  0  0
  129.7776  135.4255  160.0724 C   0  0  2  0  0  0  0  0  0  0  0  0
  130.2308  134.7131  160.7616 H   0  0  0  0  0  0  0  0  0  0  0  0
  130.3029  135.2014  158.7233 N   0  0  0  0  0  0  0  0  0  0  0  0
  130.1221  133.9761  158.1047 C   0  0  0  0  0  0  0  0  0  0  0  0
  129.4822  132.9029  158.6439 N   0  0  0  0  0  0  0  0  0  0  0  0
  129.0740  132.8591  159.5227 H   0  0  0  0  0  0  0  0  0  0  0  0
  129.5180  131.8938  157.7124 C   0  0  0  0  0  0  0  0  0  0  0  0
  130.1856  132.3763  156.6351 C   0  0  0  0  0  0  0  0  0  0  0  0
  130.4727  131.6356  155.3824 C   0  0  0  0  0  0  0  0  0  0  0  0
  129.9851  132.1059  154.1643 C   0  0  0  0  0  0  0  0  0  0  0  0
  130.2606  131.4160  153.0011 C   0  0  0  0  0  0  0  0  0  0  0  0
  131.0086  130.2532  153.0443 C   0  0  0  0  0  0  0  0  0  0  0  0
  131.4902  129.7788  154.2511 C   0  0  0  0  0  0  0  0  0  0  0  0
  131.2262  130.4637  155.4197 C   0  0  0  0  0  0  0  0  0  0  0  0
  130.5438  133.6566  156.9057 N   0  0  0  0  0  0  0  0  0  0  0  0
  131.0338  134.2421  156.3073 H   0  0  0  0  0  0  0  0  0  0  0  0
  128.2823  135.2377  160.0668 C   0  0  0  0  0  0  0  0  0  0  0  0
  127.6390  134.7792  161.2011 C   0  0  0  0  0  0  0  0  0  0  0  0
  126.2669  134.6110  161.1972 C   0  0  0  0  0  0  0  0  0  0  0  0
  125.5393  134.8927  160.0562 C   0  0  0  0  0  0  0  0  0  0  0  0
  126.1833  135.3463  158.9202 C   0  0  0  0  0  0  0  0  0  0  0  0
  127.5549  135.5185  158.9254 C   0  0  0  0  0  0  0  0  0  0  0  0
  130.2146  137.8395  159.5755 C   0  0  0  0  0  0  0  0  0  0  0  0
  130.5102  139.1279  159.9793 C   0  0  0  0  0  0  0  0  0  0  0  0
  130.7600  138.6063  163.3038 H   0  0  0  0  0  0  0  0  0  0  0  0
  130.2228  136.3138  162.5841 H   0  0  0  0  0  0  0  0  0  0  0  0
  130.7775  135.9115  158.2634 H   0  0  0  0  0  0  0  0  0  0  0  0
  129.0981  130.9045  157.8189 H   0  0  0  0  0  0  0  0  0  0  0  0
  129.3970  133.0110  154.1302 H   0  0  0  0  0  0  0  0  0  0  0  0
  129.8876  131.7823  152.0562 H   0  0  0  0  0  0  0  0  0  0  0  0
  131.2176  129.7139  152.1322 H   0  0  0  0  0  0  0  0  0  0  0  0
  132.0743  128.8707  154.2788 H   0  0  0  0  0  0  0  0  0  0  0  0
  131.6031  130.0926  156.3614 H   0  0  0  0  0  0  0  0  0  0  0  0
  128.2081  134.5555  162.0914 H   0  0  0  0  0  0  0  0  0  0  0  0
  125.7638  134.2570  162.0849 H   0  0  0  0  0  0  0  0  0  0  0  0
  124.4677  134.7589  160.0523 H   0  0  0  0  0  0  0  0  0  0  0  0
  125.6148  135.5665  158.0287 H   0  0  0  0  0  0  0  0  0  0  0  0
  128.0580  135.8729  158.0378 H   0  0  0  0  0  0  0  0  0  0  0  0
  130.0646  137.6230  158.5281 H   0  0  0  0  0  0  0  0  0  0  0  0
  130.5904  139.9182  159.2476 H   0  0  0  0  0  0  0  0  0  0  0  0
  1  2  1  0
  2 29  2  0
  2  3  1  0
  3  4  2  0
  3 30  1  0
  4  5  1  0
  4 31  1  0
  5  6  1  0
  5 28  2  0
  6  7  1  1
  6  8  1  0
  6 22  1  0
  8 32  1  0
  9  8  1  0
  9 20  2  0
  9 10  1  0
 10 11  1  0
 10 12  1  0
 12 13  2  0
 12 33  1  0
 13 14  1  0
 13 20  1  0
 14 19  1  0
 14 15  2  0
 15 16  1  0
 15 34  1  0
 16 17  2  0
 16 35  1  0
 17 18  1  0
 17 36  1  0
 18 19  2  0
 18 37  1  0
 19 38  1  0
 20 21  1  0
 22 27  1  0
 22 23  2  0
 23 24  1  0
 23 39  1  0
 24 25  2  0
 24 40  1  0
 25 26  1  0
 25 41  1  0
 26 27  2  0
 26 42  1  0
 27 43  1  0
 28 29  1  0
 28 44  1  0
 29 45  1  0
M  CHG  1  20   1
M  END
>  <DOCK_score>  (1) 
-59.383991

>  <SMILES>  (1) 
Brc1ccc([C@H](Nc2[nH]cc(-c3ccccc3)[nH+]2)c2ccccc2)cc1

$$$$
