CCc1ccc(-c2c[nH]c(N[C@@H](Cc3ccccc3)Cc3ccc(CBr)cc3)[nH+]2)cc1
     RDKit          3D

 60 63  0  0  1  0  0  0  0  0999 V2000
  132.1015  129.6372  152.6029 C   0  0  0  0  0  0  0  0  0  0  0  0
  130.6820  129.7483  153.1621 C   0  0  0  0  0  0  0  0  0  0  0  0
  130.7034  130.5655  154.4282 C   0  0  0  0  0  0  0  0  0  0  0  0
  130.5389  131.9381  154.3653 C   0  0  0  0  0  0  0  0  0  0  0  0
  130.5519  132.6907  155.5220 C   0  0  0  0  0  0  0  0  0  0  0  0
  130.7423  132.0671  156.7538 C   0  0  0  0  0  0  0  0  0  0  0  0
  130.7628  132.8712  158.0001 C   0  0  0  0  0  0  0  0  0  0  0  0
  130.3799  132.4471  159.2299 C   0  0  0  0  0  0  0  0  0  0  0  0
  130.5601  133.5032  160.0898 N   0  0  0  0  0  0  0  0  0  0  0  0
  130.3736  133.5073  161.0416 H   0  0  0  0  0  0  0  0  0  0  0  0
  131.0484  134.5426  159.3596 C   0  0  0  0  0  0  0  0  0  0  0  0
  131.3660  135.7962  159.8537 N   0  0  0  0  0  0  0  0  0  0  0  0
  130.6378  136.3360  161.0045 C   0  0  1  0  0  0  0  0  0  0  0  0
  130.4651  135.5414  161.7304 H   0  0  0  0  0  0  0  0  0  0  0  0
  131.4627  137.4492  161.6536 C   0  0  0  0  0  0  0  0  0  0  0  0
  132.7855  136.8918  162.1125 C   0  0  0  0  0  0  0  0  0  0  0  0
  133.9049  137.7025  162.1404 C   0  0  0  0  0  0  0  0  0  0  0  0
  135.1172  137.1926  162.5659 C   0  0  0  0  0  0  0  0  0  0  0  0
  135.2125  135.8691  162.9536 C   0  0  0  0  0  0  0  0  0  0  0  0
  134.0943  135.0570  162.9208 C   0  0  0  0  0  0  0  0  0  0  0  0
  132.8808  135.5683  162.5002 C   0  0  0  0  0  0  0  0  0  0  0  0
  129.2949  136.9019  160.5386 C   0  0  0  0  0  0  0  0  0  0  0  0
  128.3096  135.7755  160.3605 C   0  0  0  0  0  0  0  0  0  0  0  0
  127.5133  135.3799  161.4189 C   0  0  0  0  0  0  0  0  0  0  0  0
  126.6059  134.3502  161.2541 C   0  0  0  0  0  0  0  0  0  0  0  0
  126.5029  133.7085  160.0341 C   0  0  0  0  0  0  0  0  0  0  0  0
  125.5180  132.5818  159.8562 C   0  0  0  0  0  0  0  0  0  0  0  0
  126.3846  130.8762  160.3087 Br  0  0  0  0  0  0  0  0  0  0  0  0
  127.3030  134.1004  158.9772 C   0  0  0  0  0  0  0  0  0  0  0  0
  128.2064  135.1340  159.1403 C   0  0  0  0  0  0  0  0  0  0  0  0
  131.1736  134.1594  158.1124 N   0  0  0  0  0  0  0  0  0  0  0  0
  131.5048  134.7096  157.3855 H   0  0  0  0  0  0  0  0  0  0  0  0
  130.9128  130.6849  156.8104 C   0  0  0  0  0  0  0  0  0  0  0  0
  130.8924  129.9417  155.6477 C   0  0  0  0  0  0  0  0  0  0  0  0
  132.4859  130.6338  152.3857 H   0  0  0  0  0  0  0  0  0  0  0  0
  132.7441  129.1521  153.3375 H   0  0  0  0  0  0  0  0  0  0  0  0
  132.0860  129.0463  151.6870 H   0  0  0  0  0  0  0  0  0  0  0  0
  130.0390  130.2340  152.4271 H   0  0  0  0  0  0  0  0  0  0  0  0
  130.2972  128.7523  153.3790 H   0  0  0  0  0  0  0  0  0  0  0  0
  130.3962  132.4207  153.4097 H   0  0  0  0  0  0  0  0  0  0  0  0
  130.4189  133.7613  155.4725 H   0  0  0  0  0  0  0  0  0  0  0  0
  130.0047  131.4669  159.4845 H   0  0  0  0  0  0  0  0  0  0  0  0
  132.0709  136.3170  159.4379 H   0  0  0  0  0  0  0  0  0  0  0  0
  131.6354  138.2437  160.9277 H   0  0  0  0  0  0  0  0  0  0  0  0
  130.9209  137.8508  162.5099 H   0  0  0  0  0  0  0  0  0  0  0  0
  133.8313  138.7353  161.8333 H   0  0  0  0  0  0  0  0  0  0  0  0
  135.9908  137.8270  162.5913 H   0  0  0  0  0  0  0  0  0  0  0  0
  136.1606  135.4695  163.2819 H   0  0  0  0  0  0  0  0  0  0  0  0
  134.1688  134.0230  163.2234 H   0  0  0  0  0  0  0  0  0  0  0  0
  132.0073  134.9339  162.4742 H   0  0  0  0  0  0  0  0  0  0  0  0
  128.9166  137.6007  161.2847 H   0  0  0  0  0  0  0  0  0  0  0  0
  129.4289  137.4209  159.5895 H   0  0  0  0  0  0  0  0  0  0  0  0
  127.5972  135.8782  162.3736 H   0  0  0  0  0  0  0  0  0  0  0  0
  125.9806  134.0441  162.0797 H   0  0  0  0  0  0  0  0  0  0  0  0
  124.6623  132.7401  160.5126 H   0  0  0  0  0  0  0  0  0  0  0  0
  125.1808  132.5544  158.8200 H   0  0  0  0  0  0  0  0  0  0  0  0
  127.2224  133.5992  158.0241 H   0  0  0  0  0  0  0  0  0  0  0  0
  128.8317  135.4401  158.3147 H   0  0  0  0  0  0  0  0  0  0  0  0
  131.0611  130.1965  157.7622 H   0  0  0  0  0  0  0  0  0  0  0  0
  131.0247  128.8707  155.6903 H   0  0  0  0  0  0  0  0  0  0  0  0
  1  2  1  0
  1 35  1  0
  1 36  1  0
  1 37  1  0
  2  3  1  0
  2 38  1  0
  2 39  1  0
  3 34  2  0
  3  4  1  0
  4  5  2  0
  4 40  1  0
  5  6  1  0
  5 41  1  0
  6  7  1  0
  6 33  2  0
  7 31  1  0
  7  8  2  0
  8  9  1  0
  8 42  1  0
  9 10  1  0
  9 11  1  0
 11 12  1  0
 11 31  2  0
 12 13  1  0
 12 43  1  0
 13 14  1  1
 13 15  1  0
 13 22  1  0
 15 16  1  0
 15 44  1  0
 15 45  1  0
 16 21  1  0
 16 17  2  0
 17 18  1  0
 17 46  1  0
 18 19  2  0
 18 47  1  0
 19 20  1  0
 19 48  1  0
 20 21  2  0
 20 49  1  0
 21 50  1  0
 22 23  1  0
 22 51  1  0
 22 52  1  0
 23 30  1  0
 23 24  2  0
 24 25  1  0
 24 53  1  0
 25 26  2  0
 25 54  1  0
 26 27  1  0
 26 29  1  0
 27 28  1  0
 27 55  1  0
 27 56  1  0
 29 30  2  0
 29 57  1  0
 30 58  1  0
 31 32  1  0
 33 34  1  0
 33 59  1  0
 34 60  1  0
M  CHG  1  31   1
M  END
>  <DOCK_score>  (1) 
-57.977028

>  <SMILES>  (1) 
CCc1ccc(-c2c[nH]c(N[C@@H](Cc3ccccc3)Cc3ccc(CBr)cc3)[nH+]2)cc1

$$$$
