C/C=C/C[NH2+]Cc1c[nH]nc1-c1ccc(NCC2CC(c3ccccc3)C2)o1
     RDKit          3D

 57 60  0  0  1  0  0  0  0  0999 V2000
  135.1907  138.7856  160.7672 C   0  0  0  0  0  0  0  0  0  0  0  0
  133.7872  138.7707  160.2184 C   0  0  0  0  0  0  0  0  0  0  0  0
  132.8107  138.2655  160.9308 C   0  0  0  0  0  0  0  0  0  0  0  0
  131.4072  138.2506  160.3821 C   0  0  0  0  0  0  0  0  0  0  0  0
  131.1844  137.0017  159.6413 N   0  0  0  0  0  0  0  0  0  0  0  0
  131.8440  136.9400  158.8801 H   0  0  0  0  0  0  0  0  0  0  0  0
  130.2448  136.9917  159.2739 H   0  0  0  0  0  0  0  0  0  0  0  0
  131.3696  135.8575  160.5437 C   0  0  0  0  0  0  0  0  0  0  0  0
  131.1411  134.5764  159.7839 C   0  0  0  0  0  0  0  0  0  0  0  0
  132.0796  133.8658  159.1225 C   0  0  0  0  0  0  0  0  0  0  0  0
  131.4790  132.7869  158.5751 N   0  0  0  0  0  0  0  0  0  0  0  0
  131.9143  132.1019  158.0440 H   0  0  0  0  0  0  0  0  0  0  0  0
  130.1190  132.8278  158.9076 N   0  0  0  0  0  0  0  0  0  0  0  0
  129.9085  133.9057  159.6373 C   0  0  0  0  0  0  0  0  0  0  0  0
  128.6119  134.3353  160.2006 C   0  0  0  0  0  0  0  0  0  0  0  0
  127.4279  133.6826  160.0615 C   0  0  0  0  0  0  0  0  0  0  0  0
  126.4615  134.4383  160.7543 C   0  0  0  0  0  0  0  0  0  0  0  0
  127.1015  135.5121  161.2807 C   0  0  0  0  0  0  0  0  0  0  0  0
  126.5131  136.5152  162.0422 N   0  0  0  0  0  0  0  0  0  0  0  0
  127.3272  137.6224  162.5498 C   0  0  0  0  0  0  0  0  0  0  0  0
  126.4427  138.5803  163.3505 C   0  0  2  0  0  0  0  0  0  0  0  0
  127.2157  139.7508  163.9811 C   0  0  0  0  0  0  0  0  0  0  0  0
  126.3285  139.5646  165.2233 C   0  0  2  0  0  0  0  0  0  0  0  0
  127.0720  139.7197  166.5249 C   0  0  0  0  0  0  0  0  0  0  0  0
  126.6557  139.0255  167.6456 C   0  0  0  0  0  0  0  0  0  0  0  0
  127.3402  139.1647  168.8383 C   0  0  0  0  0  0  0  0  0  0  0  0
  128.4359  140.0042  168.9128 C   0  0  0  0  0  0  0  0  0  0  0  0
  128.8490  140.7023  167.7935 C   0  0  0  0  0  0  0  0  0  0  0  0
  128.1668  140.5602  166.5997 C   0  0  0  0  0  0  0  0  0  0  0  0
  126.1552  138.1014  164.7832 C   0  0  0  0  0  0  0  0  0  0  0  0
  128.4012  135.4403  160.9465 O   0  0  0  0  0  0  0  0  0  0  0  0
  135.5129  137.7641  160.9688 H   0  0  0  0  0  0  0  0  0  0  0  0
  135.8609  139.2410  160.0382 H   0  0  0  0  0  0  0  0  0  0  0  0
  135.2132  139.3628  161.6915 H   0  0  0  0  0  0  0  0  0  0  0  0
  133.5863  139.1764  159.2379 H   0  0  0  0  0  0  0  0  0  0  0  0
  133.0115  137.8597  161.9113 H   0  0  0  0  0  0  0  0  0  0  0  0
  131.2698  139.0996  159.7124 H   0  0  0  0  0  0  0  0  0  0  0  0
  130.6948  138.3173  161.2044 H   0  0  0  0  0  0  0  0  0  0  0  0
  130.6573  135.9243  161.3660 H   0  0  0  0  0  0  0  0  0  0  0  0
  132.3847  135.8685  160.9406 H   0  0  0  0  0  0  0  0  0  0  0  0
  133.1273  134.1161  159.0451 H   0  0  0  0  0  0  0  0  0  0  0  0
  127.2601  132.7616  159.5231 H   0  0  0  0  0  0  0  0  0  0  0  0
  125.4109  134.2063  160.8486 H   0  0  0  0  0  0  0  0  0  0  0  0
  125.5635  136.4820  162.2375 H   0  0  0  0  0  0  0  0  0  0  0  0
  128.1136  137.2295  163.1943 H   0  0  0  0  0  0  0  0  0  0  0  0
  127.7765  138.1566  161.7127 H   0  0  0  0  0  0  0  0  0  0  0  0
  125.5502  138.8879  162.8056 H   0  0  0  0  0  0  0  0  0  0  0  0
  128.2686  139.5329  164.1598 H   0  0  0  0  0  0  0  0  0  0  0  0
  127.0598  140.7018  163.4717 H   0  0  0  0  0  0  0  0  0  0  0  0
  125.4050  140.1426  165.1908 H   0  0  0  0  0  0  0  0  0  0  0  0
  125.7977  138.3722  167.5882 H   0  0  0  0  0  0  0  0  0  0  0  0
  127.0172  138.6195  169.7130 H   0  0  0  0  0  0  0  0  0  0  0  0
  128.9690  140.1150  169.8456 H   0  0  0  0  0  0  0  0  0  0  0  0
  129.7047  141.3585  167.8518 H   0  0  0  0  0  0  0  0  0  0  0  0
  128.4896  141.1056  165.7251 H   0  0  0  0  0  0  0  0  0  0  0  0
  125.1432  137.7207  164.9215 H   0  0  0  0  0  0  0  0  0  0  0  0
  126.9175  137.4313  165.1809 H   0  0  0  0  0  0  0  0  0  0  0  0
  1  2  1  0
  1 32  1  0
  1 33  1  0
  1 34  1  0
  2  3  2  0
  2 35  1  0
  3  4  1  0
  3 36  1  0
  4  5  1  0
  4 37  1  0
  4 38  1  0
  5  6  1  0
  5  7  1  0
  5  8  1  0
  8  9  1  0
  8 39  1  0
  8 40  1  0
  9 14  1  0
  9 10  2  0
 10 11  1  0
 10 41  1  0
 11 12  1  0
 11 13  1  0
 13 14  2  0
 14 15  1  0
 15 31  1  0
 15 16  2  0
 16 17  1  0
 16 42  1  0
 17 18  2  0
 17 43  1  0
 18 19  1  0
 18 31  1  0
 19 20  1  0
 19 44  1  0
 20 21  1  0
 20 45  1  0
 20 46  1  0
 21 30  1  0
 21 22  1  0
 21 47  1  6
 22 23  1  0
 22 48  1  0
 22 49  1  0
 23 24  1  0
 23 30  1  0
 23 50  1  1
 24 29  1  0
 24 25  2  0
 25 26  1  0
 25 51  1  0
 26 27  2  0
 26 52  1  0
 27 28  1  0
 27 53  1  0
 28 29  2  0
 28 54  1  0
 29 55  1  0
 30 56  1  0
 30 57  1  0
M  CHG  1   5   1
M  END
>  <DOCK_score>  (1) 
-41.237423

>  <SMILES>  (1) 
C/C=C/C[NH2+]Cc1c[nH]nc1-c1ccc(NCC2CC(c3ccccc3)C2)o1

$$$$
