Oc1cccc(-c2c[nH]c(N[C@@H]3C[C@H]3c3ccc(Cl)cc3Cl)[nH+]2)c1
     RDKit          3D

 40 43  0  0  1  0  0  0  0  0999 V2000
  123.5764  134.5275  161.5385 O   0  0  0  0  0  0  0  0  0  0  0  0
  124.7042  133.7744  161.4476 C   0  0  0  0  0  0  0  0  0  0  0  0
  124.7275  132.4925  161.9803 C   0  0  0  0  0  0  0  0  0  0  0  0
  125.8722  131.7232  161.8903 C   0  0  0  0  0  0  0  0  0  0  0  0
  126.9988  132.2249  161.2701 C   0  0  0  0  0  0  0  0  0  0  0  0
  126.9819  133.5088  160.7276 C   0  0  0  0  0  0  0  0  0  0  0  0
  128.1890  134.0480  160.0548 C   0  0  0  0  0  0  0  0  0  0  0  0
  128.2673  134.4581  158.7646 C   0  0  0  0  0  0  0  0  0  0  0  0
  129.5581  134.8804  158.5582 N   0  0  0  0  0  0  0  0  0  0  0  0
  129.9223  135.2314  157.7306 H   0  0  0  0  0  0  0  0  0  0  0  0
  130.2314  134.7157  159.7294 C   0  0  0  0  0  0  0  0  0  0  0  0
  131.5644  135.0223  159.9431 N   0  0  0  0  0  0  0  0  0  0  0  0
  132.1664  134.7943  161.2591 C   0  0  2  0  0  0  0  0  0  0  0  0
  132.6128  133.8112  161.4080 H   0  0  0  0  0  0  0  0  0  0  0  0
  131.4988  135.4571  162.4658 C   0  0  0  0  0  0  0  0  0  0  0  0
  132.8375  135.9861  161.9451 C   0  0  1  0  0  0  0  0  0  0  0  0
  132.8311  136.9397  161.4171 H   0  0  0  0  0  0  0  0  0  0  0  0
  134.0647  135.7106  162.7752 C   0  0  0  0  0  0  0  0  0  0  0  0
  134.8992  134.6584  162.4468 C   0  0  0  0  0  0  0  0  0  0  0  0
  136.0279  134.4087  163.2043 C   0  0  0  0  0  0  0  0  0  0  0  0
  136.3171  135.2051  164.2989 C   0  0  0  0  0  0  0  0  0  0  0  0
  137.7315  134.8868  165.2537 Cl  0  0  0  0  0  0  0  0  0  0  0  0
  135.4796  136.2541  164.6308 C   0  0  0  0  0  0  0  0  0  0  0  0
  134.3530  136.5071  163.8689 C   0  0  0  0  0  0  0  0  0  0  0  0
  133.3015  137.8243  164.2849 Cl  0  0  0  0  0  0  0  0  0  0  0  0
  129.4085  134.2236  160.6230 N   0  0  0  0  0  0  0  0  0  0  0  0
  129.6356  134.0159  161.5428 H   0  0  0  0  0  0  0  0  0  0  0  0
  125.8297  134.2858  160.8233 C   0  0  0  0  0  0  0  0  0  0  0  0
  123.6559  135.4045  161.1390 H   0  0  0  0  0  0  0  0  0  0  0  0
  123.8488  132.0955  162.4668 H   0  0  0  0  0  0  0  0  0  0  0  0
  125.8851  130.7264  162.3060 H   0  0  0  0  0  0  0  0  0  0  0  0
  127.8918  131.6214  161.2017 H   0  0  0  0  0  0  0  0  0  0  0  0
  127.4678  134.4541  158.0385 H   0  0  0  0  0  0  0  0  0  0  0  0
  132.0998  135.3878  159.2217 H   0  0  0  0  0  0  0  0  0  0  0  0
  130.6116  136.0627  162.2805 H   0  0  0  0  0  0  0  0  0  0  0  0
  131.5059  134.9099  163.4084 H   0  0  0  0  0  0  0  0  0  0  0  0
  134.6712  134.0340  161.5958 H   0  0  0  0  0  0  0  0  0  0  0  0
  136.6816  133.5891  162.9449 H   0  0  0  0  0  0  0  0  0  0  0  0
  135.7053  136.8758  165.4845 H   0  0  0  0  0  0  0  0  0  0  0  0
  125.8126  135.2825  160.4078 H   0  0  0  0  0  0  0  0  0  0  0  0
  1  2  1  0
  1 29  1  0
  2 28  2  0
  2  3  1  0
  3  4  2  0
  3 30  1  0
  4  5  1  0
  4 31  1  0
  5  6  2  0
  5 32  1  0
  6  7  1  0
  6 28  1  0
  7 26  1  0
  7  8  2  0
  8  9  1  0
  8 33  1  0
  9 10  1  0
  9 11  1  0
 11 12  1  0
 11 26  2  0
 12 13  1  0
 12 34  1  0
 13 14  1  1
 13 16  1  0
 13 15  1  0
 15 16  1  0
 15 35  1  0
 15 36  1  0
 16 17  1  6
 16 18  1  0
 18 24  1  0
 18 19  2  0
 19 20  1  0
 19 37  1  0
 20 21  2  0
 20 38  1  0
 21 22  1  0
 21 23  1  0
 23 24  2  0
 23 39  1  0
 24 25  1  0
 26 27  1  0
 28 40  1  0
M  CHG  1  26   1
M  END
>  <DOCK_score>  (1) 
-45.503304

>  <SMILES>  (1) 
Oc1cccc(-c2c[nH]c(N[C@@H]3C[C@H]3c3ccc(Cl)cc3Cl)[nH+]2)c1

$$$$
