Oc1ccc(C2=CCN[NH2+]C2)c(Nc2cccc3ccccc23)c1
     RDKit          3D

 44 47  0  0  0  0  0  0  0  0999 V2000
  126.2302  137.5857  162.4288 O   0  0  0  0  0  0  0  0  0  0  0  0
  126.8587  136.7807  161.5329 C   0  0  0  0  0  0  0  0  0  0  0  0
  126.1670  135.7292  160.9429 C   0  0  0  0  0  0  0  0  0  0  0  0
  126.7954  134.9104  160.0293 C   0  0  0  0  0  0  0  0  0  0  0  0
  128.1342  135.1289  159.7023 C   0  0  0  0  0  0  0  0  0  0  0  0
  128.8121  134.2504  158.7285 C   0  0  0  0  0  0  0  0  0  0  0  0
  128.8985  132.9607  158.9882 C   0  0  0  0  0  0  0  0  0  0  0  0
  129.5768  132.0002  158.0501 C   0  0  0  0  0  0  0  0  0  0  0  0
  129.7375  132.6275  156.7312 N   0  0  0  0  0  0  0  0  0  0  0  0
  130.3516  133.9402  156.8681 N   0  0  0  0  0  0  0  0  0  0  0  0
  130.6186  134.2852  155.9583 H   0  0  0  0  0  0  0  0  0  0  0  0
  131.1673  133.8721  157.4580 H   0  0  0  0  0  0  0  0  0  0  0  0
  129.3799  134.8579  157.4764 C   0  0  0  0  0  0  0  0  0  0  0  0
  128.8318  136.1900  160.2980 C   0  0  0  0  0  0  0  0  0  0  0  0
  130.1678  136.4193  159.9723 N   0  0  0  0  0  0  0  0  0  0  0  0
  131.1794  135.8040  160.7068 C   0  0  0  0  0  0  0  0  0  0  0  0
  130.9666  134.5715  161.2878 C   0  0  0  0  0  0  0  0  0  0  0  0
  131.9707  133.9485  162.0224 C   0  0  0  0  0  0  0  0  0  0  0  0
  133.1879  134.5360  162.1889 C   0  0  0  0  0  0  0  0  0  0  0  0
  133.4457  135.7920  161.6137 C   0  0  0  0  0  0  0  0  0  0  0  0
  134.6925  136.4222  161.7696 C   0  0  0  0  0  0  0  0  0  0  0  0
  134.9081  137.6390  161.1992 C   0  0  0  0  0  0  0  0  0  0  0  0
  133.9099  138.2721  160.4614 C   0  0  0  0  0  0  0  0  0  0  0  0
  132.6903  137.6913  160.2901 C   0  0  0  0  0  0  0  0  0  0  0  0
  132.4337  136.4339  160.8582 C   0  0  0  0  0  0  0  0  0  0  0  0
  128.1876  137.0102  161.2115 C   0  0  0  0  0  0  0  0  0  0  0  0
  125.3066  137.3491  162.5900 H   0  0  0  0  0  0  0  0  0  0  0  0
  125.1318  135.5562  161.1976 H   0  0  0  0  0  0  0  0  0  0  0  0
  126.2530  134.0975  159.5699 H   0  0  0  0  0  0  0  0  0  0  0  0
  128.4683  132.5817  159.9034 H   0  0  0  0  0  0  0  0  0  0  0  0
  130.5566  131.7359  158.4478 H   0  0  0  0  0  0  0  0  0  0  0  0
  128.9703  131.0999  157.9520 H   0  0  0  0  0  0  0  0  0  0  0  0
  130.2775  132.0394  156.1144 H   0  0  0  0  0  0  0  0  0  0  0  0
  128.5728  135.0505  156.7697 H   0  0  0  0  0  0  0  0  0  0  0  0
  129.8765  135.7964  157.7227 H   0  0  0  0  0  0  0  0  0  0  0  0
  130.3932  137.0072  159.2344 H   0  0  0  0  0  0  0  0  0  0  0  0
  130.0099  134.0843  161.1710 H   0  0  0  0  0  0  0  0  0  0  0  0
  131.7814  132.9831  162.4680 H   0  0  0  0  0  0  0  0  0  0  0  0
  133.9546  134.0372  162.7631 H   0  0  0  0  0  0  0  0  0  0  0  0
  135.4753  135.9435  162.3394 H   0  0  0  0  0  0  0  0  0  0  0  0
  135.8669  138.1211  161.3204 H   0  0  0  0  0  0  0  0  0  0  0  0
  134.1064  139.2377  160.0191 H   0  0  0  0  0  0  0  0  0  0  0  0
  131.9259  138.1936  159.7159 H   0  0  0  0  0  0  0  0  0  0  0  0
  128.7211  137.8281  161.6729 H   0  0  0  0  0  0  0  0  0  0  0  0
  1  2  1  0
  1 27  1  0
  2 26  2  0
  2  3  1  0
  3  4  2  0
  3 28  1  0
  4  5  1  0
  4 29  1  0
  5  6  1  0
  5 14  2  0
  6 13  1  0
  6  7  2  0
  7  8  1  0
  7 30  1  0
  8  9  1  0
  8 31  1  0
  8 32  1  0
  9 10  1  0
  9 33  1  0
 10 11  1  0
 10 12  1  0
 10 13  1  0
 13 34  1  0
 13 35  1  0
 14 15  1  0
 14 26  1  0
 15 16  1  0
 15 36  1  0
 16 25  1  0
 16 17  2  0
 17 18  1  0
 17 37  1  0
 18 19  2  0
 18 38  1  0
 19 20  1  0
 19 39  1  0
 20 25  2  0
 20 21  1  0
 21 22  2  0
 21 40  1  0
 22 23  1  0
 22 41  1  0
 23 24  2  0
 23 42  1  0
 24 25  1  0
 24 43  1  0
 26 44  1  0
M  CHG  1  10   1
M  END
>  <DOCK_score>  (1) 
-44.44566

>  <SMILES>  (1) 
Oc1ccc(C2=CCN[NH2+]C2)c(Nc2cccc3ccccc23)c1

$$$$
