Cc1ccc(-c2ccccc2Nc2[nH]cc(-c3ccc(N)cc3)[nH+]2)[nH]1
     RDKit          3D

 45 48  0  0  1  0  0  0  0  0999 V2000
  134.4776  138.4969  159.6525 C   0  0  0  0  0  0  0  0  0  0  0  0
  133.4473  137.7287  160.4395 C   0  0  0  0  0  0  0  0  0  0  0  0
  133.6500  137.1323  161.6339 C   0  0  0  0  0  0  0  0  0  0  0  0
  132.4404  136.5330  162.0226 C   0  0  0  0  0  0  0  0  0  0  0  0
  131.5311  136.7776  161.0378 C   0  0  0  0  0  0  0  0  0  0  0  0
  130.1225  136.3300  161.0237 C   0  0  0  0  0  0  0  0  0  0  0  0
  129.2489  136.7319  162.0340 C   0  0  0  0  0  0  0  0  0  0  0  0
  127.9349  136.3109  162.0156 C   0  0  0  0  0  0  0  0  0  0  0  0
  127.4787  135.4902  160.9984 C   0  0  0  0  0  0  0  0  0  0  0  0
  128.3338  135.0844  159.9916 C   0  0  0  0  0  0  0  0  0  0  0  0
  129.6575  135.4989  159.9950 C   0  0  0  0  0  0  0  0  0  0  0  0
  130.5229  135.0899  158.9787 N   0  0  0  0  0  0  0  0  0  0  0  0
  130.3300  133.8684  158.3545 C   0  0  0  0  0  0  0  0  0  0  0  0
  129.7769  132.7643  158.9267 N   0  0  0  0  0  0  0  0  0  0  0  0
  129.4498  132.6915  159.8369 H   0  0  0  0  0  0  0  0  0  0  0  0
  129.7677  131.7716  157.9763 C   0  0  0  0  0  0  0  0  0  0  0  0
  130.3148  132.2978  156.8525 C   0  0  0  0  0  0  0  0  0  0  0  0
  130.5122  131.5898  155.5637 C   0  0  0  0  0  0  0  0  0  0  0  0
  129.8963  132.0627  154.4060 C   0  0  0  0  0  0  0  0  0  0  0  0
  130.0858  131.4064  153.2082 C   0  0  0  0  0  0  0  0  0  0  0  0
  130.8809  130.2676  153.1568 C   0  0  0  0  0  0  0  0  0  0  0  0
  131.0672  129.6010  151.9434 N   0  0  0  0  0  0  0  0  0  0  0  0
  131.4913  129.7910  154.3109 C   0  0  0  0  0  0  0  0  0  0  0  0
  131.3091  130.4473  155.5099 C   0  0  0  0  0  0  0  0  0  0  0  0
  130.6447  133.5869  157.1134 N   0  0  0  0  0  0  0  0  0  0  0  0
  131.0512  134.2020  156.4829 H   0  0  0  0  0  0  0  0  0  0  0  0
  132.1526  137.5175  160.0649 N   0  0  0  0  0  0  0  0  0  0  0  0
  131.7406  137.8375  159.2471 H   0  0  0  0  0  0  0  0  0  0  0  0
  134.4464  139.5474  159.9414 H   0  0  0  0  0  0  0  0  0  0  0  0
  135.4685  138.0924  159.8593 H   0  0  0  0  0  0  0  0  0  0  0  0
  134.2632  138.4064  158.5876 H   0  0  0  0  0  0  0  0  0  0  0  0
  134.5746  137.1220  162.1920 H   0  0  0  0  0  0  0  0  0  0  0  0
  132.2646  135.9785  162.9326 H   0  0  0  0  0  0  0  0  0  0  0  0
  129.6004  137.3718  162.8297 H   0  0  0  0  0  0  0  0  0  0  0  0
  127.2592  136.6233  162.7980 H   0  0  0  0  0  0  0  0  0  0  0  0
  126.4476  135.1690  160.9891 H   0  0  0  0  0  0  0  0  0  0  0  0
  127.9711  134.4440  159.2012 H   0  0  0  0  0  0  0  0  0  0  0  0
  131.2594  135.6610  158.7097 H   0  0  0  0  0  0  0  0  0  0  0  0
  129.3958  130.7652  158.1007 H   0  0  0  0  0  0  0  0  0  0  0  0
  129.2749  132.9450  154.4463 H   0  0  0  0  0  0  0  0  0  0  0  0
  129.6122  131.7748  152.3102 H   0  0  0  0  0  0  0  0  0  0  0  0
  131.6221  128.8066  151.9065 H   0  0  0  0  0  0  0  0  0  0  0  0
  130.6416  129.9333  151.1374 H   0  0  0  0  0  0  0  0  0  0  0  0
  132.1084  128.9056  154.2688 H   0  0  0  0  0  0  0  0  0  0  0  0
  131.7839  130.0769  156.4063 H   0  0  0  0  0  0  0  0  0  0  0  0
  1  2  1  0
  1 29  1  0
  1 30  1  0
  1 31  1  0
  2 27  1  0
  2  3  2  0
  3  4  1  0
  3 32  1  0
  4  5  2  0
  4 33  1  0
  5  6  1  0
  5 27  1  0
  6 11  1  0
  6  7  2  0
  7  8  1  0
  7 34  1  0
  8  9  2  0
  8 35  1  0
  9 10  1  0
  9 36  1  0
 10 11  2  0
 10 37  1  0
 11 12  1  0
 12 38  1  0
 13 12  1  0
 13 25  2  0
 13 14  1  0
 14 15  1  0
 14 16  1  0
 16 17  2  0
 16 39  1  0
 17 18  1  0
 17 25  1  0
 18 24  1  0
 18 19  2  0
 19 20  1  0
 19 40  1  0
 20 21  2  0
 20 41  1  0
 21 22  1  0
 21 23  1  0
 22 42  1  0
 22 43  1  0
 23 24  2  0
 23 44  1  0
 24 45  1  0
 25 26  1  0
 27 28  1  0
M  CHG  1  25   1
M  END
>  <DOCK_score>  (1) 
-58.248688

>  <SMILES>  (1) 
Cc1ccc(-c2ccccc2Nc2[nH]cc(-c3ccc(N)cc3)[nH+]2)[nH]1

$$$$
