CCc1ccc(-c2c[nH]c(N[C@H](CBr)Cc3ccccc3)[nH+]2)cc1
     RDKit          3D

 47 49  0  0  1  0  0  0  0  0999 V2000
  130.0208  128.6009  151.1592 C   0  0  0  0  0  0  0  0  0  0  0  0
  131.1977  129.5149  151.5060 C   0  0  0  0  0  0  0  0  0  0  0  0
  130.8898  130.2720  152.7721 C   0  0  0  0  0  0  0  0  0  0  0  0
  131.2435  129.7375  153.9974 C   0  0  0  0  0  0  0  0  0  0  0  0
  130.9693  130.4288  155.1600 C   0  0  0  0  0  0  0  0  0  0  0  0
  130.3244  131.6628  155.0981 C   0  0  0  0  0  0  0  0  0  0  0  0
  130.0219  132.4081  156.3445 C   0  0  0  0  0  0  0  0  0  0  0  0
  129.2513  131.9686  157.3701 C   0  0  0  0  0  0  0  0  0  0  0  0
  129.2371  132.9664  158.3141 N   0  0  0  0  0  0  0  0  0  0  0  0
  128.7693  132.9470  159.1636 H   0  0  0  0  0  0  0  0  0  0  0  0
  130.0003  133.9874  157.8374 C   0  0  0  0  0  0  0  0  0  0  0  0
  130.2429  135.1848  158.4884 N   0  0  0  0  0  0  0  0  0  0  0  0
  129.6553  135.4338  159.8071 C   0  0  2  0  0  0  0  0  0  0  0  0
  129.7009  134.5225  160.4031 H   0  0  0  0  0  0  0  0  0  0  0  0
  128.1959  135.8631  159.6423 C   0  0  0  0  0  0  0  0  0  0  0  0
  127.2352  135.5820  161.3342 Br  0  0  0  0  0  0  0  0  0  0  0  0
  130.4369  136.5442  160.5121 C   0  0  0  0  0  0  0  0  0  0  0  0
  131.6962  135.9708  161.1092 C   0  0  0  0  0  0  0  0  0  0  0  0
  132.2385  136.5327  162.2498 C   0  0  0  0  0  0  0  0  0  0  0  0
  133.3909  136.0036  162.8002 C   0  0  0  0  0  0  0  0  0  0  0  0
  134.0067  134.9195  162.2046 C   0  0  0  0  0  0  0  0  0  0  0  0
  133.4675  134.3606  161.0602 C   0  0  0  0  0  0  0  0  0  0  0  0
  132.3122  134.8862  160.5128 C   0  0  0  0  0  0  0  0  0  0  0  0
  130.4723  133.6477  156.6628 N   0  0  0  0  0  0  0  0  0  0  0  0
  131.0493  134.1960  156.1085 H   0  0  0  0  0  0  0  0  0  0  0  0
  129.9652  132.1943  153.8608 C   0  0  0  0  0  0  0  0  0  0  0  0
  130.2495  131.4968  152.7043 C   0  0  0  0  0  0  0  0  0  0  0  0
  129.8572  127.8952  151.9737 H   0  0  0  0  0  0  0  0  0  0  0  0
  129.1235  129.2025  151.0140 H   0  0  0  0  0  0  0  0  0  0  0  0
  130.2434  128.0535  150.2434 H   0  0  0  0  0  0  0  0  0  0  0  0
  132.0947  128.9140  151.6507 H   0  0  0  0  0  0  0  0  0  0  0  0
  131.3610  130.2212  150.6910 H   0  0  0  0  0  0  0  0  0  0  0  0
  131.7388  128.7790  154.0445 H   0  0  0  0  0  0  0  0  0  0  0  0
  131.2500  130.0125  156.1162 H   0  0  0  0  0  0  0  0  0  0  0  0
  128.7452  131.0165  157.4326 H   0  0  0  0  0  0  0  0  0  0  0  0
  130.8021  135.8589  158.0714 H   0  0  0  0  0  0  0  0  0  0  0  0
  128.1559  136.9183  159.3726 H   0  0  0  0  0  0  0  0  0  0  0  0
  127.7291  135.2692  158.8564 H   0  0  0  0  0  0  0  0  0  0  0  0
  130.6967  137.3197  159.7917 H   0  0  0  0  0  0  0  0  0  0  0  0
  129.8229  136.9745  161.3035 H   0  0  0  0  0  0  0  0  0  0  0  0
  131.7597  137.3827  162.7131 H   0  0  0  0  0  0  0  0  0  0  0  0
  133.8125  136.4403  163.6934 H   0  0  0  0  0  0  0  0  0  0  0  0
  134.9097  134.5087  162.6313 H   0  0  0  0  0  0  0  0  0  0  0  0
  133.9490  133.5135  160.5942 H   0  0  0  0  0  0  0  0  0  0  0  0
  131.8910  134.4501  159.6192 H   0  0  0  0  0  0  0  0  0  0  0  0
  129.4651  133.1501  153.8070 H   0  0  0  0  0  0  0  0  0  0  0  0
  129.9714  131.9075  151.7450 H   0  0  0  0  0  0  0  0  0  0  0  0
  1  2  1  0
  1 28  1  0
  1 29  1  0
  1 30  1  0
  2  3  1  0
  2 31  1  0
  2 32  1  0
  3 27  2  0
  3  4  1  0
  4  5  2  0
  4 33  1  0
  5  6  1  0
  5 34  1  0
  6  7  1  0
  6 26  2  0
  7 24  1  0
  7  8  2  0
  8  9  1  0
  8 35  1  0
  9 10  1  0
  9 11  1  0
 11 12  1  0
 11 24  2  0
 12 13  1  0
 12 36  1  0
 13 14  1  1
 13 15  1  0
 13 17  1  0
 15 16  1  0
 15 37  1  0
 15 38  1  0
 17 18  1  0
 17 39  1  0
 17 40  1  0
 18 23  1  0
 18 19  2  0
 19 20  1  0
 19 41  1  0
 20 21  2  0
 20 42  1  0
 21 22  1  0
 21 43  1  0
 22 23  2  0
 22 44  1  0
 23 45  1  0
 24 25  1  0
 26 27  1  0
 26 46  1  0
 27 47  1  0
M  CHG  1  24   1
M  END
>  <DOCK_score>  (1) 
-58.007465

>  <SMILES>  (1) 
CCc1ccc(-c2c[nH]c(N[C@H](CBr)Cc3ccccc3)[nH+]2)cc1

$$$$
