CCc1ccc(-c2c[nH]c(N[C@@H](Cc3ccc(Cl)cc3)c3ccc(Cl)cc3)[nH+]2)cc1
     RDKit          3D

 54 57  0  0  1  0  0  0  0  0999 V2000
  129.9075  128.8622  151.6877 C   0  0  0  0  0  0  0  0  0  0  0  0
  131.0104  129.9034  151.8877 C   0  0  0  0  0  0  0  0  0  0  0  0
  130.8470  130.5555  153.2365 C   0  0  0  0  0  0  0  0  0  0  0  0
  131.4753  130.0155  154.3436 C   0  0  0  0  0  0  0  0  0  0  0  0
  131.3331  130.6112  155.5803 C   0  0  0  0  0  0  0  0  0  0  0  0
  130.5457  131.7534  155.7142 C   0  0  0  0  0  0  0  0  0  0  0  0
  130.3849  132.3953  157.0417 C   0  0  0  0  0  0  0  0  0  0  0  0
  129.8679  131.8134  158.1521 C   0  0  0  0  0  0  0  0  0  0  0  0
  129.9053  132.7562  159.1505 N   0  0  0  0  0  0  0  0  0  0  0  0
  129.6028  132.6375  160.0645 H   0  0  0  0  0  0  0  0  0  0  0  0
  130.4445  133.8878  158.6205 C   0  0  0  0  0  0  0  0  0  0  0  0
  130.6561  135.0751  159.3002 N   0  0  0  0  0  0  0  0  0  0  0  0
  130.2885  135.1853  160.7140 C   0  0  1  0  0  0  0  0  0  0  0  0
  130.8449  134.4479  161.2927 H   0  0  0  0  0  0  0  0  0  0  0  0
  130.6242  136.5897  161.2203 C   0  0  0  0  0  0  0  0  0  0  0  0
  130.2459  136.7029  162.6747 C   0  0  0  0  0  0  0  0  0  0  0  0
  128.9810  137.1348  163.0279 C   0  0  0  0  0  0  0  0  0  0  0  0
  128.6317  137.2335  164.3616 C   0  0  0  0  0  0  0  0  0  0  0  0
  129.5517  136.9110  165.3431 C   0  0  0  0  0  0  0  0  0  0  0  0
  129.1162  137.0421  167.0185 Cl  0  0  0  0  0  0  0  0  0  0  0  0
  130.8193  136.4844  164.9890 C   0  0  0  0  0  0  0  0  0  0  0  0
  131.1657  136.3805  163.6550 C   0  0  0  0  0  0  0  0  0  0  0  0
  128.8106  134.9350  160.8698 C   0  0  0  0  0  0  0  0  0  0  0  0
  128.3240  134.3740  162.0357 C   0  0  0  0  0  0  0  0  0  0  0  0
  126.9680  134.1494  162.1814 C   0  0  0  0  0  0  0  0  0  0  0  0
  126.0989  134.4757  161.1556 C   0  0  0  0  0  0  0  0  0  0  0  0
  124.3965  134.1870  161.3347 Cl  0  0  0  0  0  0  0  0  0  0  0  0
  126.5873  135.0320  159.9867 C   0  0  0  0  0  0  0  0  0  0  0  0
  127.9428  135.2612  159.8443 C   0  0  0  0  0  0  0  0  0  0  0  0
  130.7345  133.6666  157.3616 N   0  0  0  0  0  0  0  0  0  0  0  0
  131.1336  134.3098  156.7549 H   0  0  0  0  0  0  0  0  0  0  0  0
  129.9105  132.2906  154.5960 C   0  0  0  0  0  0  0  0  0  0  0  0
  130.0641  131.6895  153.3633 C   0  0  0  0  0  0  0  0  0  0  0  0
  129.9775  128.1047  152.4683 H   0  0  0  0  0  0  0  0  0  0  0  0
  128.9339  129.3492  151.7402 H   0  0  0  0  0  0  0  0  0  0  0  0
  130.0258  128.3905  150.7121 H   0  0  0  0  0  0  0  0  0  0  0  0
  131.9840  129.4168  151.8350 H   0  0  0  0  0  0  0  0  0  0  0  0
  130.9403  130.6614  151.1068 H   0  0  0  0  0  0  0  0  0  0  0  0
  132.0817  129.1277  154.2395 H   0  0  0  0  0  0  0  0  0  0  0  0
  131.8281  130.1910  156.4434 H   0  0  0  0  0  0  0  0  0  0  0  0
  129.4973  130.8024  158.2356 H   0  0  0  0  0  0  0  0  0  0  0  0
  131.0477  135.8341  158.8403 H   0  0  0  0  0  0  0  0  0  0  0  0
  131.6931  136.7706  161.1078 H   0  0  0  0  0  0  0  0  0  0  0  0
  130.0679  137.3270  160.6416 H   0  0  0  0  0  0  0  0  0  0  0  0
  128.2643  137.3907  162.2617 H   0  0  0  0  0  0  0  0  0  0  0  0
  127.6420  137.5666  164.6375 H   0  0  0  0  0  0  0  0  0  0  0  0
  131.5378  136.2321  165.7548 H   0  0  0  0  0  0  0  0  0  0  0  0
  132.1552  136.0479  163.3784 H   0  0  0  0  0  0  0  0  0  0  0  0
  129.0030  134.1153  162.8348 H   0  0  0  0  0  0  0  0  0  0  0  0
  126.5874  133.7152  163.0941 H   0  0  0  0  0  0  0  0  0  0  0  0
  125.9094  135.2866  159.1853 H   0  0  0  0  0  0  0  0  0  0  0  0
  128.3241  135.6958  158.9321 H   0  0  0  0  0  0  0  0  0  0  0  0
  129.2989  133.1753  154.6940 H   0  0  0  0  0  0  0  0  0  0  0  0
  129.5720  132.1046  152.4961 H   0  0  0  0  0  0  0  0  0  0  0  0
  1  2  1  0
  1 34  1  0
  1 35  1  0
  1 36  1  0
  2  3  1  0
  2 37  1  0
  2 38  1  0
  3 33  2  0
  3  4  1  0
  4  5  2  0
  4 39  1  0
  5  6  1  0
  5 40  1  0
  6  7  1  0
  6 32  2  0
  7 30  1  0
  7  8  2  0
  8  9  1  0
  8 41  1  0
  9 10  1  0
  9 11  1  0
 11 12  1  0
 11 30  2  0
 12 13  1  0
 12 42  1  0
 13 14  1  1
 13 15  1  0
 13 23  1  0
 15 16  1  0
 15 43  1  0
 15 44  1  0
 16 22  1  0
 16 17  2  0
 17 18  1  0
 17 45  1  0
 18 19  2  0
 18 46  1  0
 19 20  1  0
 19 21  1  0
 21 22  2  0
 21 47  1  0
 22 48  1  0
 23 29  1  0
 23 24  2  0
 24 25  1  0
 24 49  1  0
 25 26  2  0
 25 50  1  0
 26 27  1  0
 26 28  1  0
 28 29  2  0
 28 51  1  0
 29 52  1  0
 30 31  1  0
 32 33  1  0
 32 53  1  0
 33 54  1  0
M  CHG  1  30   1
M  END
>  <DOCK_score>  (1) 
-56.963501

>  <SMILES>  (1) 
CCc1ccc(-c2c[nH]c(N[C@@H](Cc3ccc(Cl)cc3)c3ccc(Cl)cc3)[nH+]2)cc1

$$$$
