c1ccc(C[C@H]([NH2+]C2CN(C(c3ccccc3)c3ccccc3)C2)c2ccccc2)cc1
     RDKit          3D

 63 67  0  0  1  0  0  0  0  0999 V2000
  126.4491  131.0388  160.7786 C   0  0  0  0  0  0  0  0  0  0  0  0
  126.8102  131.1901  159.4528 C   0  0  0  0  0  0  0  0  0  0  0  0
  127.6966  132.1860  159.0873 C   0  0  0  0  0  0  0  0  0  0  0  0
  128.2219  133.0304  160.0475 C   0  0  0  0  0  0  0  0  0  0  0  0
  129.1885  134.1156  159.6492 C   0  0  0  0  0  0  0  0  0  0  0  0
  130.6175  133.5715  159.7047 C   0  0  2  0  0  0  0  0  0  0  0  0
  130.8410  133.2402  160.7187 H   0  0  0  0  0  0  0  0  0  0  0  0
  131.5597  134.6295  159.3163 N   0  0  0  0  0  0  0  0  0  0  0  0
  131.1748  135.1570  158.5471 H   0  0  0  0  0  0  0  0  0  0  0  0
  132.4348  134.2138  159.0347 H   0  0  0  0  0  0  0  0  0  0  0  0
  131.7882  135.5250  160.4584 C   0  0  0  0  0  0  0  0  0  0  0  0
  131.0381  136.8651  160.3547 C   0  0  0  0  0  0  0  0  0  0  0  0
  132.2816  137.4871  160.8607 N   0  0  0  0  0  0  0  0  0  0  0  0
  132.5886  138.7223  160.1271 C   0  0  0  0  0  0  0  0  0  0  0  0
  131.7457  139.8494  160.6660 C   0  0  0  0  0  0  0  0  0  0  0  0
  130.5058  140.1102  160.1138 C   0  0  0  0  0  0  0  0  0  0  0  0
  129.7310  141.1416  160.6107 C   0  0  0  0  0  0  0  0  0  0  0  0
  130.2000  141.9172  161.6548 C   0  0  0  0  0  0  0  0  0  0  0  0
  131.4422  141.6597  162.2032 C   0  0  0  0  0  0  0  0  0  0  0  0
  132.2153  140.6259  161.7089 C   0  0  0  0  0  0  0  0  0  0  0  0
  134.0474  139.0593  160.2993 C   0  0  0  0  0  0  0  0  0  0  0  0
  134.7249  139.7295  159.2980 C   0  0  0  0  0  0  0  0  0  0  0  0
  136.0618  140.0421  159.4575 C   0  0  0  0  0  0  0  0  0  0  0  0
  136.7236  139.6773  160.6151 C   0  0  0  0  0  0  0  0  0  0  0  0
  136.0474  139.0024  161.6143 C   0  0  0  0  0  0  0  0  0  0  0  0
  134.7095  138.6932  161.4563 C   0  0  0  0  0  0  0  0  0  0  0  0
  133.0812  136.3529  160.3473 C   0  0  0  0  0  0  0  0  0  0  0  0
  130.7493  132.4084  158.7556 C   0  0  0  0  0  0  0  0  0  0  0  0
  130.4954  131.1235  159.1976 C   0  0  0  0  0  0  0  0  0  0  0  0
  130.6119  130.0570  158.3259 C   0  0  0  0  0  0  0  0  0  0  0  0
  130.9914  130.2744  157.0145 C   0  0  0  0  0  0  0  0  0  0  0  0
  131.2505  131.5589  156.5739 C   0  0  0  0  0  0  0  0  0  0  0  0
  131.1297  132.6258  157.4445 C   0  0  0  0  0  0  0  0  0  0  0  0
  127.8649  132.8756  161.3741 C   0  0  0  0  0  0  0  0  0  0  0  0
  126.9743  131.8832  161.7388 C   0  0  0  0  0  0  0  0  0  0  0  0
  125.7568  130.2606  161.0643 H   0  0  0  0  0  0  0  0  0  0  0  0
  126.4001  130.5303  158.7027 H   0  0  0  0  0  0  0  0  0  0  0  0
  127.9790  132.3040  158.0517 H   0  0  0  0  0  0  0  0  0  0  0  0
  129.0933  134.9569  160.3358 H   0  0  0  0  0  0  0  0  0  0  0  0
  128.9651  134.4471  158.6352 H   0  0  0  0  0  0  0  0  0  0  0  0
  131.6669  135.0276  161.4206 H   0  0  0  0  0  0  0  0  0  0  0  0
  130.7885  137.1508  159.3327 H   0  0  0  0  0  0  0  0  0  0  0  0
  130.1944  136.9503  161.0394 H   0  0  0  0  0  0  0  0  0  0  0  0
  132.3711  138.5799  159.0685 H   0  0  0  0  0  0  0  0  0  0  0  0
  130.1409  139.5062  159.2961 H   0  0  0  0  0  0  0  0  0  0  0  0
  128.7605  141.3431  160.1817 H   0  0  0  0  0  0  0  0  0  0  0  0
  129.5956  142.7247  162.0411 H   0  0  0  0  0  0  0  0  0  0  0  0
  131.8086  142.2659  163.0184 H   0  0  0  0  0  0  0  0  0  0  0  0
  133.1859  140.4247  162.1377 H   0  0  0  0  0  0  0  0  0  0  0  0
  134.2087  140.0116  158.3921 H   0  0  0  0  0  0  0  0  0  0  0  0
  136.5903  140.5690  158.6767 H   0  0  0  0  0  0  0  0  0  0  0  0
  137.7689  139.9190  160.7387 H   0  0  0  0  0  0  0  0  0  0  0  0
  136.5646  138.7169  162.5185 H   0  0  0  0  0  0  0  0  0  0  0  0
  134.1811  138.1660  162.2370 H   0  0  0  0  0  0  0  0  0  0  0  0
  133.8699  136.0288  161.0264 H   0  0  0  0  0  0  0  0  0  0  0  0
  133.4303  136.4872  159.3235 H   0  0  0  0  0  0  0  0  0  0  0  0
  130.2024  130.9532  160.2230 H   0  0  0  0  0  0  0  0  0  0  0  0
  130.4093  129.0536  158.6700 H   0  0  0  0  0  0  0  0  0  0  0  0
  131.0852  129.4410  156.3341 H   0  0  0  0  0  0  0  0  0  0  0  0
  131.5470  131.7288  155.5494 H   0  0  0  0  0  0  0  0  0  0  0  0
  131.3321  133.6293  157.1003 H   0  0  0  0  0  0  0  0  0  0  0  0
  128.2785  133.5325  162.1249 H   0  0  0  0  0  0  0  0  0  0  0  0
  126.6925  131.7647  162.7746 H   0  0  0  0  0  0  0  0  0  0  0  0
  1 35  2  0
  1  2  1  0
  1 36  1  0
  2  3  2  0
  2 37  1  0
  3  4  1  0
  3 38  1  0
  4  5  1  0
  4 34  2  0
  5  6  1  0
  5 39  1  0
  5 40  1  0
  6  7  1  1
  6  8  1  0
  6 28  1  0
  8  9  1  0
  8 10  1  0
  8 11  1  0
 11 27  1  0
 11 12  1  0
 11 41  1  0
 12 13  1  0
 12 42  1  0
 12 43  1  0
 13 14  1  0
 13 27  1  0
 14 15  1  0
 14 21  1  0
 14 44  1  0
 15 20  1  0
 15 16  2  0
 16 17  1  0
 16 45  1  0
 17 18  2  0
 17 46  1  0
 18 19  1  0
 18 47  1  0
 19 20  2  0
 19 48  1  0
 20 49  1  0
 21 26  1  0
 21 22  2  0
 22 23  1  0
 22 50  1  0
 23 24  2  0
 23 51  1  0
 24 25  1  0
 24 52  1  0
 25 26  2  0
 25 53  1  0
 26 54  1  0
 27 55  1  0
 27 56  1  0
 28 33  1  0
 28 29  2  0
 29 30  1  0
 29 57  1  0
 30 31  2  0
 30 58  1  0
 31 32  1  0
 31 59  1  0
 32 33  2  0
 32 60  1  0
 33 61  1  0
 34 35  1  0
 34 62  1  0
 35 63  1  0
M  CHG  1   8   1
M  END
>  <DOCK_score>  (1) 
-62.828548

>  <SMILES>  (1) 
c1ccc(C[C@H]([NH2+]C2CN(C(c3ccccc3)c3ccccc3)C2)c2ccccc2)cc1

$$$$
