FC1(F)CC(CCNC2=C[C@@H]([NH2+]C(Cc3ccccc3)Cc3ccccc3)CCC2)C1
     RDKit          3D

 66 69  0  0  1  0  0  0  0  0999 V2000
  138.7959  135.9084  166.7813 F   0  0  0  0  0  0  0  0  0  0  0  0
  138.2439  136.9838  166.0772 C   0  0  0  0  0  0  0  0  0  0  0  0
  138.5555  138.2238  166.6452 F   0  0  0  0  0  0  0  0  0  0  0  0
  138.4930  136.9206  164.5611 C   0  0  0  0  0  0  0  0  0  0  0  0
  137.1872  136.1147  164.4596 C   0  0  0  0  0  0  0  0  0  0  0  0
  136.3305  136.4859  163.2475 C   0  0  0  0  0  0  0  0  0  0  0  0
  135.0613  135.6316  163.2391 C   0  0  0  0  0  0  0  0  0  0  0  0
  134.2410  135.9871  162.0785 N   0  0  0  0  0  0  0  0  0  0  0  0
  133.0317  135.3398  161.8582 C   0  0  0  0  0  0  0  0  0  0  0  0
  132.3320  135.6866  160.8128 C   0  0  0  0  0  0  0  0  0  0  0  0
  131.0060  135.0823  160.4541 C   0  0  1  0  0  0  0  0  0  0  0  0
  130.2098  135.7749  160.7268 H   0  0  0  0  0  0  0  0  0  0  0  0
  130.9599  134.8329  159.0071 N   0  0  0  0  0  0  0  0  0  0  0  0
  131.4558  133.9798  158.7970 H   0  0  0  0  0  0  0  0  0  0  0  0
  131.3932  135.6026  158.5193 H   0  0  0  0  0  0  0  0  0  0  0  0
  129.5614  134.7051  158.5765 C   0  0  0  0  0  0  0  0  0  0  0  0
  129.5058  133.9725  157.2345 C   0  0  0  0  0  0  0  0  0  0  0  0
  130.1123  132.6012  157.3854 C   0  0  0  0  0  0  0  0  0  0  0  0
  130.7352  131.9986  156.3085 C   0  0  0  0  0  0  0  0  0  0  0  0
  131.2950  130.7424  156.4479 C   0  0  0  0  0  0  0  0  0  0  0  0
  131.2246  130.0853  157.6621 C   0  0  0  0  0  0  0  0  0  0  0  0
  130.5972  130.6856  158.7375 C   0  0  0  0  0  0  0  0  0  0  0  0
  130.0408  131.9434  158.5992 C   0  0  0  0  0  0  0  0  0  0  0  0
  128.9455  136.0974  158.4235 C   0  0  0  0  0  0  0  0  0  0  0  0
  127.5107  135.9662  157.9818 C   0  0  0  0  0  0  0  0  0  0  0  0
  127.2018  135.9406  156.6348 C   0  0  0  0  0  0  0  0  0  0  0  0
  125.8859  135.8163  156.2296 C   0  0  0  0  0  0  0  0  0  0  0  0
  124.8783  135.7260  157.1716 C   0  0  0  0  0  0  0  0  0  0  0  0
  125.1868  135.7568  158.5188 C   0  0  0  0  0  0  0  0  0  0  0  0
  126.5029  135.8772  158.9239 C   0  0  0  0  0  0  0  0  0  0  0  0
  130.8086  133.7625  161.2028 C   0  0  0  0  0  0  0  0  0  0  0  0
  131.1132  133.9959  162.6879 C   0  0  0  0  0  0  0  0  0  0  0  0
  132.6086  134.2835  162.8367 C   0  0  0  0  0  0  0  0  0  0  0  0
  136.7476  136.8078  165.7601 C   0  0  0  0  0  0  0  0  0  0  0  0
  139.3806  136.3499  164.2879 H   0  0  0  0  0  0  0  0  0  0  0  0
  138.4456  137.8925  164.0699 H   0  0  0  0  0  0  0  0  0  0  0  0
  137.3287  135.0390  164.5644 H   0  0  0  0  0  0  0  0  0  0  0  0
  136.8963  136.3049  162.3335 H   0  0  0  0  0  0  0  0  0  0  0  0
  136.0587  137.5400  163.3038 H   0  0  0  0  0  0  0  0  0  0  0  0
  134.4955  135.8127  164.1530 H   0  0  0  0  0  0  0  0  0  0  0  0
  135.3331  134.5776  163.1829 H   0  0  0  0  0  0  0  0  0  0  0  0
  134.5424  136.6742  161.4638 H   0  0  0  0  0  0  0  0  0  0  0  0
  132.7314  136.4545  160.1667 H   0  0  0  0  0  0  0  0  0  0  0  0
  129.0018  134.1403  159.3223 H   0  0  0  0  0  0  0  0  0  0  0  0
  128.4681  133.8776  156.9151 H   0  0  0  0  0  0  0  0  0  0  0  0
  130.0653  134.5372  156.4889 H   0  0  0  0  0  0  0  0  0  0  0  0
  130.7872  132.5106  155.3589 H   0  0  0  0  0  0  0  0  0  0  0  0
  131.7849  130.2732  155.6076 H   0  0  0  0  0  0  0  0  0  0  0  0
  131.6596  129.1027  157.7702 H   0  0  0  0  0  0  0  0  0  0  0  0
  130.5418  130.1721  159.6860 H   0  0  0  0  0  0  0  0  0  0  0  0
  129.5505  132.4125  159.4394 H   0  0  0  0  0  0  0  0  0  0  0  0
  128.9852  136.6192  159.3797 H   0  0  0  0  0  0  0  0  0  0  0  0
  129.5051  136.6622  157.6778 H   0  0  0  0  0  0  0  0  0  0  0  0
  127.9887  136.0146  155.8988 H   0  0  0  0  0  0  0  0  0  0  0  0
  125.6449  135.7926  155.1772 H   0  0  0  0  0  0  0  0  0  0  0  0
  123.8501  135.6316  156.8551 H   0  0  0  0  0  0  0  0  0  0  0  0
  124.3995  135.6866  159.2548 H   0  0  0  0  0  0  0  0  0  0  0  0
  126.7439  135.9014  159.9763 H   0  0  0  0  0  0  0  0  0  0  0  0
  129.7778  133.4271  161.0885 H   0  0  0  0  0  0  0  0  0  0  0  0
  131.4883  133.0096  160.8035 H   0  0  0  0  0  0  0  0  0  0  0  0
  130.5385  134.8482  163.0499 H   0  0  0  0  0  0  0  0  0  0  0  0
  130.8494  133.1065  163.2600 H   0  0  0  0  0  0  0  0  0  0  0  0
  132.8111  134.6281  163.8508 H   0  0  0  0  0  0  0  0  0  0  0  0
  133.1728  133.3699  162.6485 H   0  0  0  0  0  0  0  0  0  0  0  0
  136.2222  137.7488  165.5973 H   0  0  0  0  0  0  0  0  0  0  0  0
  136.2283  136.1463  166.4534 H   0  0  0  0  0  0  0  0  0  0  0  0
  1  2  1  0
  2 34  1  0
  2  3  1  0
  2  4  1  0
  4  5  1  0
  4 35  1  0
  4 36  1  0
  5  6  1  0
  5 34  1  0
  5 37  1  0
  6  7  1  0
  6 38  1  0
  6 39  1  0
  7  8  1  0
  7 40  1  0
  7 41  1  0
  8  9  1  0
  8 42  1  0
  9 33  1  0
  9 10  2  0
 10 11  1  0
 10 43  1  0
 11 12  1  1
 11 13  1  0
 11 31  1  0
 13 14  1  0
 13 15  1  0
 13 16  1  0
 16 17  1  0
 16 24  1  0
 16 44  1  0
 17 18  1  0
 17 45  1  0
 17 46  1  0
 18 23  1  0
 18 19  2  0
 19 20  1  0
 19 47  1  0
 20 21  2  0
 20 48  1  0
 21 22  1  0
 21 49  1  0
 22 23  2  0
 22 50  1  0
 23 51  1  0
 24 25  1  0
 24 52  1  0
 24 53  1  0
 25 30  1  0
 25 26  2  0
 26 27  1  0
 26 54  1  0
 27 28  2  0
 27 55  1  0
 28 29  1  0
 28 56  1  0
 29 30  2  0
 29 57  1  0
 30 58  1  0
 31 32  1  0
 31 59  1  0
 31 60  1  0
 32 33  1  0
 32 61  1  0
 32 62  1  0
 33 63  1  0
 33 64  1  0
 34 65  1  0
 34 66  1  0
M  CHG  1  13   1
M  END
>  <DOCK_score>  (1) 
-57.31842

>  <SMILES>  (1) 
FC1(F)CC(CCNC2=C[C@@H]([NH2+]C(Cc3ccccc3)Cc3ccccc3)CCC2)C1

$$$$
