O=C1CC[C@H](NC(NC2C=CCCC2)=[NH+][C@@H]2C[C@H]2c2ccccc2)CN1
     RDKit          3D

 55 58  0  0  1  0  0  0  0  0999 V2000
  123.6581  133.8702  161.4509 O   0  0  0  0  0  0  0  0  0  0  0  0
  124.8473  134.0334  161.2779 C   0  0  0  0  0  0  0  0  0  0  0  0
  125.5872  133.0336  160.4359 C   0  0  0  0  0  0  0  0  0  0  0  0
  127.0914  133.1484  160.6949 C   0  0  0  0  0  0  0  0  0  0  0  0
  127.4891  134.6260  160.5945 C   0  0  2  0  0  0  0  0  0  0  0  0
  127.1326  135.0398  159.6511 H   0  0  0  0  0  0  0  0  0  0  0  0
  128.9473  134.7485  160.6651 N   0  0  0  0  0  0  0  0  0  0  0  0
  129.6971  134.7077  159.5136 C   0  0  0  0  0  0  0  0  0  0  0  0
  129.2588  133.9789  158.4332 N   0  0  0  0  0  0  0  0  0  0  0  0
  130.2278  133.3799  157.5121 C   0  0  1  0  0  0  0  0  0  0  0  0
  131.1133  132.4330  158.2682 C   0  0  0  0  0  0  0  0  0  0  0  0
  131.4659  131.2659  157.8333 C   0  0  0  0  0  0  0  0  0  0  0  0
  131.0309  130.6927  156.5164 C   0  0  0  0  0  0  0  0  0  0  0  0
  130.4959  131.8027  155.6092 C   0  0  0  0  0  0  0  0  0  0  0  0
  129.4805  132.6295  156.4073 C   0  0  0  0  0  0  0  0  0  0  0  0
  130.8235  135.3601  159.4458 N   0  0  0  0  0  0  0  0  0  0  0  0
  131.3526  135.3313  158.6333 H   0  0  0  0  0  0  0  0  0  0  0  0
  131.2906  136.1366  160.5970 C   0  0  2  0  0  0  0  0  0  0  0  0
  131.9182  135.5959  161.3053 H   0  0  0  0  0  0  0  0  0  0  0  0
  130.3485  137.2031  161.1589 C   0  0  0  0  0  0  0  0  0  0  0  0
  131.5933  137.6195  160.3729 C   0  0  1  0  0  0  0  0  0  0  0  0
  131.4449  138.0173  159.3690 H   0  0  0  0  0  0  0  0  0  0  0  0
  132.7368  138.2211  161.1483 C   0  0  0  0  0  0  0  0  0  0  0  0
  132.7097  139.5594  161.4933 C   0  0  0  0  0  0  0  0  0  0  0  0
  133.7564  140.1102  162.2088 C   0  0  0  0  0  0  0  0  0  0  0  0
  134.8352  139.3250  162.5704 C   0  0  0  0  0  0  0  0  0  0  0  0
  134.8647  137.9878  162.2210 C   0  0  0  0  0  0  0  0  0  0  0  0
  133.8156  137.4360  161.5100 C   0  0  0  0  0  0  0  0  0  0  0  0
  126.8534  135.3845  161.7603 C   0  0  0  0  0  0  0  0  0  0  0  0
  125.4274  135.0940  161.8408 N   0  0  0  0  0  0  0  0  0  0  0  0
  125.3858  133.2231  159.3815 H   0  0  0  0  0  0  0  0  0  0  0  0
  125.2513  132.0289  160.6925 H   0  0  0  0  0  0  0  0  0  0  0  0
  127.6373  132.5700  159.9496 H   0  0  0  0  0  0  0  0  0  0  0  0
  127.3223  132.7732  161.6919 H   0  0  0  0  0  0  0  0  0  0  0  0
  129.3836  134.8584  161.5244 H   0  0  0  0  0  0  0  0  0  0  0  0
  128.3082  133.8614  158.2810 H   0  0  0  0  0  0  0  0  0  0  0  0
  130.8368  134.1663  157.0665 H   0  0  0  0  0  0  0  0  0  0  0  0
  131.4788  132.7447  159.2355 H   0  0  0  0  0  0  0  0  0  0  0  0
  132.1134  130.6676  158.4570 H   0  0  0  0  0  0  0  0  0  0  0  0
  131.8808  130.2101  156.0341 H   0  0  0  0  0  0  0  0  0  0  0  0
  130.2450  129.9563  156.6849 H   0  0  0  0  0  0  0  0  0  0  0  0
  131.3185  132.4409  155.2869 H   0  0  0  0  0  0  0  0  0  0  0  0
  130.0109  131.3621  154.7382 H   0  0  0  0  0  0  0  0  0  0  0  0
  128.7362  131.9690  156.8519 H   0  0  0  0  0  0  0  0  0  0  0  0
  128.9918  133.3442  155.7452 H   0  0  0  0  0  0  0  0  0  0  0  0
  129.3811  137.3270  160.6720 H   0  0  0  0  0  0  0  0  0  0  0  0
  130.3562  137.3641  162.2368 H   0  0  0  0  0  0  0  0  0  0  0  0
  131.8690  140.1739  161.2070 H   0  0  0  0  0  0  0  0  0  0  0  0
  133.7335  141.1549  162.4816 H   0  0  0  0  0  0  0  0  0  0  0  0
  135.6549  139.7562  163.1256 H   0  0  0  0  0  0  0  0  0  0  0  0
  135.7077  137.3745  162.5032 H   0  0  0  0  0  0  0  0  0  0  0  0
  133.8388  136.3913  161.2366 H   0  0  0  0  0  0  0  0  0  0  0  0
  126.9953  136.4552  161.6135 H   0  0  0  0  0  0  0  0  0  0  0  0
  127.3353  135.0846  162.6908 H   0  0  0  0  0  0  0  0  0  0  0  0
  124.8657  135.7086  162.3384 H   0  0  0  0  0  0  0  0  0  0  0  0
  1  2  2  0
  2 30  1  0
  2  3  1  0
  3  4  1  0
  3 31  1  0
  3 32  1  0
  4  5  1  0
  4 33  1  0
  4 34  1  0
  5  6  1  6
  5  7  1  0
  5 29  1  0
  7 35  1  0
  8  7  1  0
  8  9  1  0
  8 16  2  0
  9 10  1  0
  9 36  1  0
 10 15  1  0
 10 11  1  0
 10 37  1  6
 11 12  2  0
 11 38  1  0
 12 13  1  0
 12 39  1  0
 13 14  1  0
 13 40  1  0
 13 41  1  0
 14 15  1  0
 14 42  1  0
 14 43  1  0
 15 44  1  0
 15 45  1  0
 16 17  1  0
 16 18  1  0
 18 19  1  1
 18 21  1  0
 18 20  1  0
 20 21  1  0
 20 46  1  0
 20 47  1  0
 21 22  1  6
 21 23  1  0
 23 28  1  0
 23 24  2  0
 24 25  1  0
 24 48  1  0
 25 26  2  0
 25 49  1  0
 26 27  1  0
 26 50  1  0
 27 28  2  0
 27 51  1  0
 28 52  1  0
 29 30  1  0
 29 53  1  0
 29 54  1  0
 30 55  1  0
M  CHG  1  16   1
M  END
>  <DOCK_score>  (1) 
-49.544353

>  <SMILES>  (1) 
O=C1CC[C@H](NC(NC2C=CCCC2)=[NH+][C@@H]2C[C@H]2c2ccccc2)CN1

$$$$
