CCc1ccc(C(=CCCBr)C[C@@H](O)Nc2[nH]cc(-c3ccc(CC)cc3)[nH+]2)cc1
     RDKit          3D

 61 63  0  0  1  0  0  0  0  0999 V2000
  136.7403  135.0503  163.3978 C   0  0  0  0  0  0  0  0  0  0  0  0
  135.3551  134.4861  163.7205 C   0  0  0  0  0  0  0  0  0  0  0  0
  134.3152  135.2106  162.9052 C   0  0  0  0  0  0  0  0  0  0  0  0
  133.9649  134.7332  161.6549 C   0  0  0  0  0  0  0  0  0  0  0  0
  133.0137  135.3921  160.9033 C   0  0  0  0  0  0  0  0  0  0  0  0
  132.4050  136.5423  161.4067 C   0  0  0  0  0  0  0  0  0  0  0  0
  131.3857  137.2534  160.6065 C   0  0  0  0  0  0  0  0  0  0  0  0
  131.7514  138.2160  159.7717 C   0  0  0  0  0  0  0  0  0  0  0  0
  133.2064  138.5854  159.6385 C   0  0  0  0  0  0  0  0  0  0  0  0
  133.5487  139.6824  160.6486 C   0  0  0  0  0  0  0  0  0  0  0  0
  135.4469  140.1641  160.4747 Br  0  0  0  0  0  0  0  0  0  0  0  0
  129.9307  136.8841  160.7399 C   0  0  0  0  0  0  0  0  0  0  0  0
  129.7406  135.4146  160.3588 C   0  0  1  0  0  0  0  0  0  0  0  0
  130.3368  134.7873  161.0215 H   0  0  0  0  0  0  0  0  0  0  0  0
  128.3609  135.0644  160.4852 O   0  0  0  0  0  0  0  0  0  0  0  0
  130.1716  135.2096  158.9738 N   0  0  0  0  0  0  0  0  0  0  0  0
  130.0926  133.9506  158.4033 C   0  0  0  0  0  0  0  0  0  0  0  0
  129.6402  132.8266  159.0229 N   0  0  0  0  0  0  0  0  0  0  0  0
  129.3175  132.7640  159.9356 H   0  0  0  0  0  0  0  0  0  0  0  0
  129.7242  131.7972  158.1172 C   0  0  0  0  0  0  0  0  0  0  0  0
  130.2252  132.3212  156.9712 C   0  0  0  0  0  0  0  0  0  0  0  0
  130.4907  131.5788  155.7149 C   0  0  0  0  0  0  0  0  0  0  0  0
  129.8442  131.9455  154.5358 C   0  0  0  0  0  0  0  0  0  0  0  0
  130.0953  131.2515  153.3697 C   0  0  0  0  0  0  0  0  0  0  0  0
  130.9868  130.1937  153.3696 C   0  0  0  0  0  0  0  0  0  0  0  0
  131.2572  129.4394  152.0933 C   0  0  0  0  0  0  0  0  0  0  0  0
  130.2664  128.2807  151.9659 C   0  0  0  0  0  0  0  0  0  0  0  0
  131.6270  129.8218  154.5381 C   0  0  0  0  0  0  0  0  0  0  0  0
  131.3878  130.5123  155.7088 C   0  0  0  0  0  0  0  0  0  0  0  0
  130.4461  133.6436  157.1791 N   0  0  0  0  0  0  0  0  0  0  0  0
  130.8061  134.2634  156.5255 H   0  0  0  0  0  0  0  0  0  0  0  0
  132.7668  137.0216  162.6662 C   0  0  0  0  0  0  0  0  0  0  0  0
  133.7154  136.3505  163.4101 C   0  0  0  0  0  0  0  0  0  0  0  0
  137.4924  134.5263  163.9875 H   0  0  0  0  0  0  0  0  0  0  0  0
  136.9501  134.9136  162.3370 H   0  0  0  0  0  0  0  0  0  0  0  0
  136.7649  136.1130  163.6390 H   0  0  0  0  0  0  0  0  0  0  0  0
  135.1452  134.6230  164.7814 H   0  0  0  0  0  0  0  0  0  0  0  0
  135.3305  133.4235  163.4793 H   0  0  0  0  0  0  0  0  0  0  0  0
  134.4364  133.8426  161.2666 H   0  0  0  0  0  0  0  0  0  0  0  0
  132.7413  135.0185  159.9272 H   0  0  0  0  0  0  0  0  0  0  0  0
  131.0067  138.7357  159.1872 H   0  0  0  0  0  0  0  0  0  0  0  0
  133.8232  137.7078  159.8322 H   0  0  0  0  0  0  0  0  0  0  0  0
  133.3982  138.9486  158.6288 H   0  0  0  0  0  0  0  0  0  0  0  0
  132.9319  140.5600  160.4548 H   0  0  0  0  0  0  0  0  0  0  0  0
  133.3569  139.3192  161.6582 H   0  0  0  0  0  0  0  0  0  0  0  0
  129.3345  137.5114  160.0771 H   0  0  0  0  0  0  0  0  0  0  0  0
  129.6102  137.0367  161.7703 H   0  0  0  0  0  0  0  0  0  0  0  0
  128.1664  134.1444  160.2590 H   0  0  0  0  0  0  0  0  0  0  0  0
  130.5123  135.9560  158.4563 H   0  0  0  0  0  0  0  0  0  0  0  0
  129.4445  130.7677  158.2856 H   0  0  0  0  0  0  0  0  0  0  0  0
  129.1477  132.7710  154.5348 H   0  0  0  0  0  0  0  0  0  0  0  0
  129.5947  131.5345  152.4555 H   0  0  0  0  0  0  0  0  0  0  0  0
  132.2740  129.0485  152.1102 H   0  0  0  0  0  0  0  0  0  0  0  0
  131.1407  130.1119  151.2426 H   0  0  0  0  0  0  0  0  0  0  0  0
  129.2493  128.6722  151.9484 H   0  0  0  0  0  0  0  0  0  0  0  0
  130.4617  127.7355  151.0424 H   0  0  0  0  0  0  0  0  0  0  0  0
  130.3826  127.6087  152.8161 H   0  0  0  0  0  0  0  0  0  0  0  0
  132.3184  128.9921  154.5333 H   0  0  0  0  0  0  0  0  0  0  0  0
  131.8918  130.2241  156.6195 H   0  0  0  0  0  0  0  0  0  0  0  0
  132.3021  137.9136  163.0596 H   0  0  0  0  0  0  0  0  0  0  0  0
  133.9933  136.7181  164.3868 H   0  0  0  0  0  0  0  0  0  0  0  0
  1  2  1  0
  1 34  1  0
  1 35  1  0
  1 36  1  0
  2  3  1  0
  2 37  1  0
  2 38  1  0
  3 33  2  0
  3  4  1  0
  4  5  2  0
  4 39  1  0
  5  6  1  0
  5 40  1  0
  6  7  1  0
  6 32  2  0
  7  8  2  0
  7 12  1  0
  8  9  1  0
  8 41  1  0
  9 10  1  0
  9 42  1  0
  9 43  1  0
 10 11  1  0
 10 44  1  0
 10 45  1  0
 12 13  1  0
 12 46  1  0
 12 47  1  0
 13 14  1  1
 13 15  1  0
 13 16  1  0
 15 48  1  0
 16 49  1  0
 17 16  1  0
 17 30  2  0
 17 18  1  0
 18 19  1  0
 18 20  1  0
 20 21  2  0
 20 50  1  0
 21 22  1  0
 21 30  1  0
 22 29  1  0
 22 23  2  0
 23 24  1  0
 23 51  1  0
 24 25  2  0
 24 52  1  0
 25 26  1  0
 25 28  1  0
 26 27  1  0
 26 53  1  0
 26 54  1  0
 27 55  1  0
 27 56  1  0
 27 57  1  0
 28 29  2  0
 28 58  1  0
 29 59  1  0
 30 31  1  0
 32 33  1  0
 32 60  1  0
 33 61  1  0
M  CHG  1  30   1
M  END
>  <DOCK_score>  (1) 
-62.462601

>  <SMILES>  (1) 
CCc1ccc(C(=CCCBr)C[C@@H](O)Nc2[nH]cc(-c3ccc(CC)cc3)[nH+]2)cc1

$$$$
