O=C1CCC(C[NH2+]Cc2c[nH]nc2-c2ccc(N[C@H]3CC34CCOCC4)o2)CN1
     RDKit          3D

 59 63  0  0  1  0  0  0  0  0999 V2000
  137.3661  140.2367  159.6284 O   0  0  0  0  0  0  0  0  0  0  0  0
  136.3172  139.6751  159.8644 C   0  0  0  0  0  0  0  0  0  0  0  0
  135.9923  139.3475  161.2936 C   0  0  0  0  0  0  0  0  0  0  0  0
  134.4957  139.0586  161.4343 C   0  0  0  0  0  0  0  0  0  0  0  0
  134.0901  138.0617  160.3419 C   0  0  1  0  0  0  0  0  0  0  0  0
  132.6445  137.6138  160.5667 C   0  0  0  0  0  0  0  0  0  0  0  0
  132.4072  136.3501  159.8564 N   0  0  0  0  0  0  0  0  0  0  0  0
  133.0366  135.6438  160.2071 H   0  0  0  0  0  0  0  0  0  0  0  0
  132.5683  136.4839  158.8693 H   0  0  0  0  0  0  0  0  0  0  0  0
  131.0193  135.9201  160.0723 C   0  0  0  0  0  0  0  0  0  0  0  0
  130.7759  134.6236  159.3435 C   0  0  0  0  0  0  0  0  0  0  0  0
  131.6794  133.9450  158.6045 C   0  0  0  0  0  0  0  0  0  0  0  0
  131.0748  132.8413  158.1143 N   0  0  0  0  0  0  0  0  0  0  0  0
  131.4868  132.1718  157.5460 H   0  0  0  0  0  0  0  0  0  0  0  0
  129.7500  132.8300  158.5691 N   0  0  0  0  0  0  0  0  0  0  0  0
  129.5641  133.9017  159.3144 C   0  0  0  0  0  0  0  0  0  0  0  0
  128.3083  134.2821  159.9934 C   0  0  0  0  0  0  0  0  0  0  0  0
  127.1429  133.5834  159.9616 C   0  0  0  0  0  0  0  0  0  0  0  0
  126.2156  134.3007  160.7432 C   0  0  0  0  0  0  0  0  0  0  0  0
  126.8566  135.4032  161.2052 C   0  0  0  0  0  0  0  0  0  0  0  0
  126.3008  136.3851  162.0172 N   0  0  0  0  0  0  0  0  0  0  0  0
  127.1468  137.1220  162.9592 C   0  0  1  0  0  0  0  0  0  0  0  0
  128.1343  137.3968  162.5885 H   0  0  0  0  0  0  0  0  0  0  0  0
  126.4564  138.0939  163.9193 C   0  0  0  0  0  0  0  0  0  0  0  0
  127.0212  136.7744  164.4410 C   0  0  0  0  0  0  0  0  0  0  0  0
  126.0273  135.6772  164.8370 C   0  0  0  0  0  0  0  0  0  0  0  0
  125.7653  135.7740  166.3446 C   0  0  0  0  0  0  0  0  0  0  0  0
  127.0102  135.7340  167.0444 O   0  0  0  0  0  0  0  0  0  0  0  0
  127.8719  136.8434  166.7833 C   0  0  0  0  0  0  0  0  0  0  0  0
  128.2892  136.8253  165.3079 C   0  0  0  0  0  0  0  0  0  0  0  0
  128.1212  135.3834  160.7509 O   0  0  0  0  0  0  0  0  0  0  0  0
  134.2078  138.7510  158.9820 C   0  0  0  0  0  0  0  0  0  0  0  0
  135.5144  139.3814  158.8410 N   0  0  0  0  0  0  0  0  0  0  0  0
  136.5611  138.4705  161.6022 H   0  0  0  0  0  0  0  0  0  0  0  0
  136.2578  140.1931  161.9282 H   0  0  0  0  0  0  0  0  0  0  0  0
  133.9303  139.9830  161.3159 H   0  0  0  0  0  0  0  0  0  0  0  0
  134.2958  138.6288  162.4158 H   0  0  0  0  0  0  0  0  0  0  0  0
  134.7503  137.1950  160.3710 H   0  0  0  0  0  0  0  0  0  0  0  0
  131.9645  138.3768  160.1880 H   0  0  0  0  0  0  0  0  0  0  0  0
  132.4706  137.4693  161.6332 H   0  0  0  0  0  0  0  0  0  0  0  0
  130.3394  136.6831  159.6932 H   0  0  0  0  0  0  0  0  0  0  0  0
  130.8454  135.7757  161.1386 H   0  0  0  0  0  0  0  0  0  0  0  0
  132.7050  134.2362  158.4319 H   0  0  0  0  0  0  0  0  0  0  0  0
  126.9634  132.6545  159.4409 H   0  0  0  0  0  0  0  0  0  0  0  0
  125.1891  134.0260  160.9360 H   0  0  0  0  0  0  0  0  0  0  0  0
  125.3526  136.5823  161.9600 H   0  0  0  0  0  0  0  0  0  0  0  0
  125.3725  138.1851  163.8500 H   0  0  0  0  0  0  0  0  0  0  0  0
  126.9899  139.0079  164.1802 H   0  0  0  0  0  0  0  0  0  0  0  0
  126.4473  134.6996  164.6003 H   0  0  0  0  0  0  0  0  0  0  0  0
  125.0929  135.8158  164.2932 H   0  0  0  0  0  0  0  0  0  0  0  0
  125.2536  136.7107  166.5655 H   0  0  0  0  0  0  0  0  0  0  0  0
  125.1434  134.9362  166.6603 H   0  0  0  0  0  0  0  0  0  0  0  0
  127.3448  137.7723  167.0010 H   0  0  0  0  0  0  0  0  0  0  0  0
  128.7585  136.7715  167.4131 H   0  0  0  0  0  0  0  0  0  0  0  0
  128.8542  137.7282  165.0761 H   0  0  0  0  0  0  0  0  0  0  0  0
  128.9050  135.9475  165.1122 H   0  0  0  0  0  0  0  0  0  0  0  0
  134.0771  138.0123  158.1911 H   0  0  0  0  0  0  0  0  0  0  0  0
  133.4326  139.5123  158.8955 H   0  0  0  0  0  0  0  0  0  0  0  0
  135.8193  139.6008  157.9466 H   0  0  0  0  0  0  0  0  0  0  0  0
  1  2  2  0
  2 33  1  0
  2  3  1  0
  3  4  1  0
  3 34  1  0
  3 35  1  0
  4  5  1  0
  4 36  1  0
  4 37  1  0
  5  6  1  0
  5 32  1  0
  5 38  1  6
  6  7  1  0
  6 39  1  0
  6 40  1  0
  7  8  1  0
  7  9  1  0
  7 10  1  0
 10 11  1  0
 10 41  1  0
 10 42  1  0
 11 16  1  0
 11 12  2  0
 12 13  1  0
 12 43  1  0
 13 14  1  0
 13 15  1  0
 15 16  2  0
 16 17  1  0
 17 31  1  0
 17 18  2  0
 18 19  1  0
 18 44  1  0
 19 20  2  0
 19 45  1  0
 20 21  1  0
 20 31  1  0
 21 22  1  0
 21 46  1  0
 22 23  1  6
 22 25  1  0
 22 24  1  0
 24 25  1  0
 24 47  1  0
 24 48  1  0
 25 30  1  0
 25 26  1  0
 26 27  1  0
 26 49  1  0
 26 50  1  0
 27 28  1  0
 27 51  1  0
 27 52  1  0
 28 29  1  0
 29 30  1  0
 29 53  1  0
 29 54  1  0
 30 55  1  0
 30 56  1  0
 32 33  1  0
 32 57  1  0
 32 58  1  0
 33 59  1  0
M  CHG  1   7   1
M  END
>  <DOCK_score>  (1) 
-43.453339

>  <SMILES>  (1) 
O=C1CCC(C[NH2+]Cc2c[nH]nc2-c2ccc(N[C@H]3CC34CCOCC4)o2)CN1

$$$$
