O=C1CC[C@H](NC(N[C@H]2C[C@@H](O)C2)=[NH+]CC2=CCCCC2)CN1
     RDKit          3D

 52 54  0  0  1  0  0  0  0  0999 V2000
  123.7475  133.6539  161.6899 O   0  0  0  0  0  0  0  0  0  0  0  0
  124.8923  133.9399  161.4094 C   0  0  0  0  0  0  0  0  0  0  0  0
  125.8460  132.8243  161.0911 C   0  0  0  0  0  0  0  0  0  0  0  0
  127.2876  133.3280  161.1961 C   0  0  0  0  0  0  0  0  0  0  0  0
  127.4009  134.6401  160.4105 C   0  0  2  0  0  0  0  0  0  0  0  0
  127.0135  134.4971  159.4019 H   0  0  0  0  0  0  0  0  0  0  0  0
  128.8049  135.0533  160.3438 N   0  0  0  0  0  0  0  0  0  0  0  0
  129.5970  134.6309  159.3026 C   0  0  0  0  0  0  0  0  0  0  0  0
  129.0717  133.8208  158.3239 N   0  0  0  0  0  0  0  0  0  0  0  0
  129.9157  133.3707  157.2143 C   0  0  1  0  0  0  0  0  0  0  0  0
  130.3197  134.1961  156.6279 H   0  0  0  0  0  0  0  0  0  0  0  0
  130.9726  132.3324  157.6262 C   0  0  0  0  0  0  0  0  0  0  0  0
  130.6650  131.6107  156.3034 C   0  0  1  0  0  0  0  0  0  0  0  0
  131.2746  131.9532  155.4672 H   0  0  0  0  0  0  0  0  0  0  0  0
  130.6348  130.1870  156.4218 O   0  0  0  0  0  0  0  0  0  0  0  0
  129.2738  132.2634  156.3620 C   0  0  0  0  0  0  0  0  0  0  0  0
  130.8461  134.9987  159.2432 N   0  0  0  0  0  0  0  0  0  0  0  0
  131.2820  135.0982  158.3825 H   0  0  0  0  0  0  0  0  0  0  0  0
  131.5917  135.2616  160.4766 C   0  0  0  0  0  0  0  0  0  0  0  0
  132.0756  136.6888  160.4765 C   0  0  0  0  0  0  0  0  0  0  0  0
  133.3515  136.8970  160.5413 C   0  0  0  0  0  0  0  0  0  0  0  0
  133.9813  138.2590  160.5599 C   0  0  0  0  0  0  0  0  0  0  0  0
  132.9807  139.3091  160.0726 C   0  0  0  0  0  0  0  0  0  0  0  0
  131.6628  139.1132  160.8328 C   0  0  0  0  0  0  0  0  0  0  0  0
  131.0488  137.7800  160.3951 C   0  0  0  0  0  0  0  0  0  0  0  0
  126.5805  135.7128  161.1280 C   0  0  0  0  0  0  0  0  0  0  0  0
  125.2336  135.2272  161.4011 N   0  0  0  0  0  0  0  0  0  0  0  0
  125.6601  132.4671  160.0782 H   0  0  0  0  0  0  0  0  0  0  0  0
  125.6957  132.0071  161.7965 H   0  0  0  0  0  0  0  0  0  0  0  0
  127.5398  133.5035  162.2419 H   0  0  0  0  0  0  0  0  0  0  0  0
  127.9667  132.5875  160.7736 H   0  0  0  0  0  0  0  0  0  0  0  0
  129.1756  135.6249  161.0343 H   0  0  0  0  0  0  0  0  0  0  0  0
  128.1421  133.5472  158.3681 H   0  0  0  0  0  0  0  0  0  0  0  0
  131.9838  132.7358  157.6784 H   0  0  0  0  0  0  0  0  0  0  0  0
  130.6986  131.7578  158.5108 H   0  0  0  0  0  0  0  0  0  0  0  0
  130.4418  129.7275  155.5931 H   0  0  0  0  0  0  0  0  0  0  0  0
  128.5354  131.6699  156.9012 H   0  0  0  0  0  0  0  0  0  0  0  0
  128.9135  132.6112  155.3936 H   0  0  0  0  0  0  0  0  0  0  0  0
  130.9414  135.0986  161.3360 H   0  0  0  0  0  0  0  0  0  0  0  0
  132.4467  134.5880  160.5350 H   0  0  0  0  0  0  0  0  0  0  0  0
  134.0035  136.0371  160.5842 H   0  0  0  0  0  0  0  0  0  0  0  0
  134.2912  138.4999  161.5769 H   0  0  0  0  0  0  0  0  0  0  0  0
  134.8549  138.2622  159.9080 H   0  0  0  0  0  0  0  0  0  0  0  0
  133.3721  140.3072  160.2690 H   0  0  0  0  0  0  0  0  0  0  0  0
  132.8120  139.1856  159.0028 H   0  0  0  0  0  0  0  0  0  0  0  0
  131.8577  139.0966  161.9052 H   0  0  0  0  0  0  0  0  0  0  0  0
  130.9793  139.9289  160.5973 H   0  0  0  0  0  0  0  0  0  0  0  0
  130.6902  137.8630  159.3692 H   0  0  0  0  0  0  0  0  0  0  0  0
  130.2115  137.5378  161.0497 H   0  0  0  0  0  0  0  0  0  0  0  0
  127.0680  135.9705  162.0681 H   0  0  0  0  0  0  0  0  0  0  0  0
  126.5194  136.6005  160.4986 H   0  0  0  0  0  0  0  0  0  0  0  0
  124.5433  135.8824  161.5880 H   0  0  0  0  0  0  0  0  0  0  0  0
  1  2  2  0
  2 27  1  0
  2  3  1  0
  3  4  1  0
  3 28  1  0
  3 29  1  0
  4  5  1  0
  4 30  1  0
  4 31  1  0
  5  6  1  6
  5  7  1  0
  5 26  1  0
  7 32  1  0
  8  7  1  0
  8  9  1  0
  8 17  2  0
  9 10  1  0
  9 33  1  0
 10 11  1  6
 10 16  1  0
 10 12  1  0
 12 13  1  0
 12 34  1  0
 12 35  1  0
 13 14  1  6
 13 15  1  0
 13 16  1  0
 15 36  1  0
 16 37  1  0
 16 38  1  0
 17 18  1  0
 17 19  1  0
 19 20  1  0
 19 39  1  0
 19 40  1  0
 20 25  1  0
 20 21  2  0
 21 22  1  0
 21 41  1  0
 22 23  1  0
 22 42  1  0
 22 43  1  0
 23 24  1  0
 23 44  1  0
 23 45  1  0
 24 25  1  0
 24 46  1  0
 24 47  1  0
 25 48  1  0
 25 49  1  0
 26 27  1  0
 26 50  1  0
 26 51  1  0
 27 52  1  0
M  CHG  1  17   1
M  END
>  <DOCK_score>  (1) 
-47.100609

>  <SMILES>  (1) 
O=C1CC[C@H](NC(N[C@H]2C[C@@H](O)C2)=[NH+]CC2=CCCCC2)CN1

$$$$
