Oc1ccc2c(c1)OC[C@H](Nc1ccc(-c3n[nH]cc3C[NH2+]CC3C=CCC3)o1)C2
     RDKit          3D

 57 61  0  0  1  0  0  0  0  0999 V2000
  131.8537  140.0527  165.8015 O   0  0  0  0  0  0  0  0  0  0  0  0
  130.8880  139.5485  164.9891 C   0  0  0  0  0  0  0  0  0  0  0  0
  130.4540  140.2761  163.8896 C   0  0  0  0  0  0  0  0  0  0  0  0
  129.4747  139.7599  163.0655 C   0  0  0  0  0  0  0  0  0  0  0  0
  128.9203  138.5176  163.3286 C   0  0  0  0  0  0  0  0  0  0  0  0
  129.3468  137.7895  164.4257 C   0  0  0  0  0  0  0  0  0  0  0  0
  130.3348  138.3075  165.2560 C   0  0  0  0  0  0  0  0  0  0  0  0
  128.8251  136.5709  164.7230 O   0  0  0  0  0  0  0  0  0  0  0  0
  128.1056  135.8843  163.6980 C   0  0  0  0  0  0  0  0  0  0  0  0
  127.0892  136.8568  163.0860 C   0  0  2  0  0  0  0  0  0  0  0  0
  126.4555  137.2685  163.8716 H   0  0  0  0  0  0  0  0  0  0  0  0
  126.2622  136.1526  162.1028 N   0  0  0  0  0  0  0  0  0  0  0  0
  126.8398  135.2194  161.2497 C   0  0  0  0  0  0  0  0  0  0  0  0
  126.2199  134.1305  160.7303 C   0  0  0  0  0  0  0  0  0  0  0  0
  127.1663  133.4622  159.9284 C   0  0  0  0  0  0  0  0  0  0  0  0
  128.3161  134.1841  159.9923 C   0  0  0  0  0  0  0  0  0  0  0  0
  129.5807  133.8604  159.3003 C   0  0  0  0  0  0  0  0  0  0  0  0
  129.7904  132.8264  158.5095 N   0  0  0  0  0  0  0  0  0  0  0  0
  131.1153  132.8853  158.0589 N   0  0  0  0  0  0  0  0  0  0  0  0
  131.5423  132.2501  157.4632 H   0  0  0  0  0  0  0  0  0  0  0  0
  131.6958  133.9793  158.5982 C   0  0  0  0  0  0  0  0  0  0  0  0
  130.7767  134.6061  159.3633 C   0  0  0  0  0  0  0  0  0  0  0  0
  130.9916  135.8744  160.1485 C   0  0  0  0  0  0  0  0  0  0  0  0
  132.3702  136.3430  159.9542 N   0  0  0  0  0  0  0  0  0  0  0  0
  133.0142  135.6356  160.2752 H   0  0  0  0  0  0  0  0  0  0  0  0
  132.5293  136.5231  158.9742 H   0  0  0  0  0  0  0  0  0  0  0  0
  132.5796  137.5792  160.7197 C   0  0  0  0  0  0  0  0  0  0  0  0
  134.0155  138.0672  160.5174 C   0  0  2  0  0  0  0  0  0  0  0  0
  134.3728  139.0991  161.5619 C   0  0  0  0  0  0  0  0  0  0  0  0
  134.9895  140.1167  161.0254 C   0  0  0  0  0  0  0  0  0  0  0  0
  135.1464  139.9332  159.5338 C   0  0  0  0  0  0  0  0  0  0  0  0
  134.1465  138.8117  159.1684 C   0  0  0  0  0  0  0  0  0  0  0  0
  128.1047  135.2470  160.7968 O   0  0  0  0  0  0  0  0  0  0  0  0
  127.8585  137.9872  162.3982 C   0  0  0  0  0  0  0  0  0  0  0  0
  132.0889  139.4738  166.5392 H   0  0  0  0  0  0  0  0  0  0  0  0
  130.8820  141.2452  163.6795 H   0  0  0  0  0  0  0  0  0  0  0  0
  129.1389  140.3275  162.2103 H   0  0  0  0  0  0  0  0  0  0  0  0
  130.6712  137.7407  166.1115 H   0  0  0  0  0  0  0  0  0  0  0  0
  127.5833  135.0289  164.1262 H   0  0  0  0  0  0  0  0  0  0  0  0
  128.7982  135.5445  162.9280 H   0  0  0  0  0  0  0  0  0  0  0  0
  125.3116  136.3377  162.0471 H   0  0  0  0  0  0  0  0  0  0  0  0
  125.1963  133.8312  160.9008 H   0  0  0  0  0  0  0  0  0  0  0  0
  127.0071  132.5536  159.3670 H   0  0  0  0  0  0  0  0  0  0  0  0
  132.7151  134.2994  158.4405 H   0  0  0  0  0  0  0  0  0  0  0  0
  130.2959  136.6385  159.8019 H   0  0  0  0  0  0  0  0  0  0  0  0
  130.8198  135.6798  161.2071 H   0  0  0  0  0  0  0  0  0  0  0  0
  131.8840  138.3434  160.3730 H   0  0  0  0  0  0  0  0  0  0  0  0
  132.4078  137.3846  161.7783 H   0  0  0  0  0  0  0  0  0  0  0  0
  134.7102  137.2281  160.5570 H   0  0  0  0  0  0  0  0  0  0  0  0
  134.1471  139.0068  162.6139 H   0  0  0  0  0  0  0  0  0  0  0  0
  135.3418  140.9768  161.5755 H   0  0  0  0  0  0  0  0  0  0  0  0
  136.1647  139.6270  159.2939 H   0  0  0  0  0  0  0  0  0  0  0  0
  134.8924  140.8542  159.0090 H   0  0  0  0  0  0  0  0  0  0  0  0
  134.5563  138.1576  158.3988 H   0  0  0  0  0  0  0  0  0  0  0  0
  133.1884  139.2272  158.8563 H   0  0  0  0  0  0  0  0  0  0  0  0
  128.3286  137.6067  161.4913 H   0  0  0  0  0  0  0  0  0  0  0  0
  127.1684  138.7902  162.1387 H   0  0  0  0  0  0  0  0  0  0  0  0
  1  2  1  0
  1 35  1  0
  2  7  2  0
  2  3  1  0
  3  4  2  0
  3 36  1  0
  4  5  1  0
  4 37  1  0
  5 34  1  0
  5  6  2  0
  6  7  1  0
  6  8  1  0
  7 38  1  0
  8  9  1  0
  9 10  1  0
  9 39  1  0
  9 40  1  0
 10 11  1  1
 10 12  1  0
 10 34  1  0
 12 13  1  0
 12 41  1  0
 13 33  1  0
 13 14  2  0
 14 15  1  0
 14 42  1  0
 15 16  2  0
 15 43  1  0
 16 17  1  0
 16 33  1  0
 17 22  1  0
 17 18  2  0
 18 19  1  0
 19 20  1  0
 19 21  1  0
 21 22  2  0
 21 44  1  0
 22 23  1  0
 23 24  1  0
 23 45  1  0
 23 46  1  0
 24 25  1  0
 24 26  1  0
 24 27  1  0
 27 28  1  0
 27 47  1  0
 27 48  1  0
 28 32  1  0
 28 29  1  0
 28 49  1  6
 29 30  2  0
 29 50  1  0
 30 31  1  0
 30 51  1  0
 31 32  1  0
 31 52  1  0
 31 53  1  0
 32 54  1  0
 32 55  1  0
 34 56  1  0
 34 57  1  0
M  CHG  1  24   1
M  END
>  <DOCK_score>  (1) 
-45.021126

>  <SMILES>  (1) 
Oc1ccc2c(c1)OC[C@H](Nc1ccc(-c3n[nH]cc3C[NH2+]CC3C=CCC3)o1)C2

$$$$
