Cc1ccc2c(c1)CC([NH+]=C(NC1CCCCC1)N[C@H]1CCC(=O)NC1)CO2
     RDKit          3D

 61 64  0  0  1  0  0  0  0  0999 V2000
  135.1567  138.6008  164.6204 C   0  0  0  0  0  0  0  0  0  0  0  0
  134.7706  137.3453  163.8818 C   0  0  0  0  0  0  0  0  0  0  0  0
  135.3254  136.1314  164.2440 C   0  0  0  0  0  0  0  0  0  0  0  0
  134.9701  134.9824  163.5681 C   0  0  0  0  0  0  0  0  0  0  0  0
  134.0546  135.0401  162.5219 C   0  0  0  0  0  0  0  0  0  0  0  0
  133.5039  136.2566  162.1594 C   0  0  0  0  0  0  0  0  0  0  0  0
  133.8630  137.4065  162.8428 C   0  0  0  0  0  0  0  0  0  0  0  0
  132.5159  136.3656  161.0255 C   0  0  0  0  0  0  0  0  0  0  0  0
  131.9367  134.9836  160.7125 C   0  0  1  0  0  0  0  0  0  0  0  0
  131.2062  135.0300  159.4435 N   0  0  0  0  0  0  0  0  0  0  0  0
  131.6675  135.2784  158.6272 H   0  0  0  0  0  0  0  0  0  0  0  0
  129.9365  134.7375  159.4114 C   0  0  0  0  0  0  0  0  0  0  0  0
  129.3873  134.1830  158.2795 N   0  0  0  0  0  0  0  0  0  0  0  0
  130.2053  133.3360  157.4078 C   0  0  0  0  0  0  0  0  0  0  0  0
  129.7074  133.4571  155.9661 C   0  0  0  0  0  0  0  0  0  0  0  0
  130.5616  132.5726  155.0557 C   0  0  0  0  0  0  0  0  0  0  0  0
  130.4536  131.1163  155.5120 C   0  0  0  0  0  0  0  0  0  0  0  0
  130.9514  130.9953  156.9537 C   0  0  0  0  0  0  0  0  0  0  0  0
  130.0972  131.8796  157.8641 C   0  0  0  0  0  0  0  0  0  0  0  0
  129.1464  134.9834  160.5093 N   0  0  0  0  0  0  0  0  0  0  0  0
  127.7192  134.6547  160.4731 C   0  0  1  0  0  0  0  0  0  0  0  0
  127.3470  134.7427  159.4524 H   0  0  0  0  0  0  0  0  0  0  0  0
  127.5132  133.2222  160.9778 C   0  0  0  0  0  0  0  0  0  0  0  0
  126.0477  132.8412  160.7536 C   0  0  0  0  0  0  0  0  0  0  0  0
  125.1516  133.9259  161.2788 C   0  0  0  0  0  0  0  0  0  0  0  0
  123.9857  133.6600  161.4800 O   0  0  0  0  0  0  0  0  0  0  0  0
  125.5695  135.1661  161.5354 N   0  0  0  0  0  0  0  0  0  0  0  0
  126.9491  135.6114  161.3842 C   0  0  0  0  0  0  0  0  0  0  0  0
  133.0980  133.9871  160.6047 C   0  0  0  0  0  0  0  0  0  0  0  0
  133.7261  133.8869  161.8834 O   0  0  0  0  0  0  0  0  0  0  0  0
  134.4800  138.7501  165.4618 H   0  0  0  0  0  0  0  0  0  0  0  0
  136.1785  138.5063  164.9882 H   0  0  0  0  0  0  0  0  0  0  0  0
  135.0909  139.4541  163.9455 H   0  0  0  0  0  0  0  0  0  0  0  0
  136.0367  136.0830  165.0553 H   0  0  0  0  0  0  0  0  0  0  0  0
  135.4040  134.0349  163.8521 H   0  0  0  0  0  0  0  0  0  0  0  0
  133.4313  138.3557  162.5614 H   0  0  0  0  0  0  0  0  0  0  0  0
  133.0204  136.7560  160.1416 H   0  0  0  0  0  0  0  0  0  0  0  0
  131.7092  137.0410  161.3099 H   0  0  0  0  0  0  0  0  0  0  0  0
  131.2632  134.6777  161.5131 H   0  0  0  0  0  0  0  0  0  0  0  0
  128.4581  134.3522  158.0582 H   0  0  0  0  0  0  0  0  0  0  0  0
  131.2455  133.6573  157.4611 H   0  0  0  0  0  0  0  0  0  0  0  0
  128.6672  133.1359  155.9128 H   0  0  0  0  0  0  0  0  0  0  0  0
  129.7845  134.4946  155.6411 H   0  0  0  0  0  0  0  0  0  0  0  0
  131.6020  132.8939  155.1090 H   0  0  0  0  0  0  0  0  0  0  0  0
  130.2070  132.6588  154.0286 H   0  0  0  0  0  0  0  0  0  0  0  0
  131.0622  130.4861  154.8633 H   0  0  0  0  0  0  0  0  0  0  0  0
  129.4134  130.7950  155.4586 H   0  0  0  0  0  0  0  0  0  0  0  0
  131.9917  131.3165  157.0070 H   0  0  0  0  0  0  0  0  0  0  0  0
  130.8745  129.9577  157.2788 H   0  0  0  0  0  0  0  0  0  0  0  0
  130.4519  131.7934  158.8912 H   0  0  0  0  0  0  0  0  0  0  0  0
  129.0570  131.5585  157.8108 H   0  0  0  0  0  0  0  0  0  0  0  0
  129.5339  135.3746  161.3078 H   0  0  0  0  0  0  0  0  0  0  0  0
  127.7482  133.1675  162.0408 H   0  0  0  0  0  0  0  0  0  0  0  0
  128.1584  132.5404  160.4238 H   0  0  0  0  0  0  0  0  0  0  0  0
  125.8320  131.9090  161.2758 H   0  0  0  0  0  0  0  0  0  0  0  0
  125.8674  132.7074  159.6871 H   0  0  0  0  0  0  0  0  0  0  0  0
  124.9141  135.8125  161.8414 H   0  0  0  0  0  0  0  0  0  0  0  0
  126.9595  136.6105  160.9487 H   0  0  0  0  0  0  0  0  0  0  0  0
  127.4277  135.6401  162.3631 H   0  0  0  0  0  0  0  0  0  0  0  0
  132.7173  133.0107  160.3052 H   0  0  0  0  0  0  0  0  0  0  0  0
  133.8187  134.3417  159.8678 H   0  0  0  0  0  0  0  0  0  0  0  0
  1  2  1  0
  1 31  1  0
  1 32  1  0
  1 33  1  0
  2  7  2  0
  2  3  1  0
  3  4  2  0
  3 34  1  0
  4  5  1  0
  4 35  1  0
  5 30  1  0
  5  6  2  0
  6  7  1  0
  6  8  1  0
  7 36  1  0
  8  9  1  0
  8 37  1  0
  8 38  1  0
  9 10  1  0
  9 29  1  0
  9 39  1  1
 10 11  1  0
 12 10  2  0
 12 13  1  0
 12 20  1  0
 13 14  1  0
 13 40  1  0
 14 19  1  0
 14 15  1  0
 14 41  1  0
 15 16  1  0
 15 42  1  0
 15 43  1  0
 16 17  1  0
 16 44  1  0
 16 45  1  0
 17 18  1  0
 17 46  1  0
 17 47  1  0
 18 19  1  0
 18 48  1  0
 18 49  1  0
 19 50  1  0
 19 51  1  0
 20 21  1  0
 20 52  1  0
 21 22  1  6
 21 28  1  0
 21 23  1  0
 23 24  1  0
 23 53  1  0
 23 54  1  0
 24 25  1  0
 24 55  1  0
 24 56  1  0
 25 26  2  0
 25 27  1  0
 27 28  1  0
 27 57  1  0
 28 58  1  0
 28 59  1  0
 29 30  1  0
 29 60  1  0
 29 61  1  0
M  CHG  1  10   1
M  END
>  <DOCK_score>  (1) 
-48.012112

>  <SMILES>  (1) 
Cc1ccc2c(c1)CC([NH+]=C(NC1CCCCC1)N[C@H]1CCC(=O)NC1)CO2

$$$$
