Cc1ccc(C2(C(=O)NCc3cccc(F)n3)CC[NH+](C[C@H](O)c3ccc(F)c(F)c3)CC2)cc1
     RDKit          3D

 64 67  0  0  1  0  0  0  0  0999 V2000
  131.0337  129.6671  153.2597 C   0  0  0  0  0  0  0  0  0  0  0  0
  130.8249  130.5190  154.4853 C   0  0  0  0  0  0  0  0  0  0  0  0
  130.0299  131.6478  154.4152 C   0  0  0  0  0  0  0  0  0  0  0  0
  129.8376  132.4286  155.5396 C   0  0  0  0  0  0  0  0  0  0  0  0
  130.4400  132.0805  156.7341 C   0  0  0  0  0  0  0  0  0  0  0  0
  130.2303  132.9317  157.9599 C   0  0  1  0  0  0  0  0  0  0  0  0
  129.5957  132.1026  159.0465 C   0  0  0  0  0  0  0  0  0  0  0  0
  130.1663  131.9525  160.1062 O   0  0  0  0  0  0  0  0  0  0  0  0
  128.3941  131.5280  158.8409 N   0  0  0  0  0  0  0  0  0  0  0  0
  127.7770  130.7222  159.8975 C   0  0  0  0  0  0  0  0  0  0  0  0
  126.9233  131.6062  160.7696 C   0  0  0  0  0  0  0  0  0  0  0  0
  125.6618  131.1839  161.1418 C   0  0  0  0  0  0  0  0  0  0  0  0
  124.8828  132.0039  161.9447 C   0  0  0  0  0  0  0  0  0  0  0  0
  125.4040  133.2236  162.3453 C   0  0  0  0  0  0  0  0  0  0  0  0
  126.6772  133.5808  161.9332 C   0  0  0  0  0  0  0  0  0  0  0  0
  127.1957  134.7678  162.3177 F   0  0  0  0  0  0  0  0  0  0  0  0
  127.3919  132.7714  161.1728 N   0  0  0  0  0  0  0  0  0  0  0  0
  131.5790  133.4689  158.4471 C   0  0  0  0  0  0  0  0  0  0  0  0
  131.3508  134.3957  159.6431 C   0  0  0  0  0  0  0  0  0  0  0  0
  130.4923  135.5165  159.2414 N   0  0  2  0  0  0  0  0  0  0  0  0
  130.9154  136.0012  158.4642 H   0  0  0  0  0  0  0  0  0  0  0  0
  130.3397  136.4437  160.3705 C   0  0  0  0  0  0  0  0  0  0  0  0
  131.5771  137.3385  160.4665 C   0  0  2  0  0  0  0  0  0  0  0  0
  131.8956  137.6268  159.4647 H   0  0  0  0  0  0  0  0  0  0  0  0
  132.6319  136.6248  161.1146 O   0  0  0  0  0  0  0  0  0  0  0  0
  131.2432  138.5737  161.2625 C   0  0  0  0  0  0  0  0  0  0  0  0
  131.4174  138.5795  162.6340 C   0  0  0  0  0  0  0  0  0  0  0  0
  131.1119  139.7111  163.3663 C   0  0  0  0  0  0  0  0  0  0  0  0
  130.6310  140.8404  162.7265 C   0  0  0  0  0  0  0  0  0  0  0  0
  130.3326  141.9472  163.4416 F   0  0  0  0  0  0  0  0  0  0  0  0
  130.4563  140.8348  161.3511 C   0  0  0  0  0  0  0  0  0  0  0  0
  129.9875  141.9360  160.7245 F   0  0  0  0  0  0  0  0  0  0  0  0
  130.7632  139.6998  160.6208 C   0  0  0  0  0  0  0  0  0  0  0  0
  129.1725  135.0143  158.8408 C   0  0  0  0  0  0  0  0  0  0  0  0
  129.3170  134.1113  157.6140 C   0  0  0  0  0  0  0  0  0  0  0  0
  131.2393  130.9545  156.8028 C   0  0  0  0  0  0  0  0  0  0  0  0
  131.4280  130.1714  155.6795 C   0  0  0  0  0  0  0  0  0  0  0  0
  131.9059  130.0252  152.7128 H   0  0  0  0  0  0  0  0  0  0  0  0
  131.1929  128.6315  153.5598 H   0  0  0  0  0  0  0  0  0  0  0  0
  130.1533  129.7288  152.6200 H   0  0  0  0  0  0  0  0  0  0  0  0
  129.5588  131.9193  153.4821 H   0  0  0  0  0  0  0  0  0  0  0  0
  129.2165  133.3104  155.4847 H   0  0  0  0  0  0  0  0  0  0  0  0
  127.9377  131.6480  157.9934 H   0  0  0  0  0  0  0  0  0  0  0  0
  127.1564  129.9471  159.4476 H   0  0  0  0  0  0  0  0  0  0  0  0
  128.5561  130.2581  160.5023 H   0  0  0  0  0  0  0  0  0  0  0  0
  125.2863  130.2268  160.8112 H   0  0  0  0  0  0  0  0  0  0  0  0
  123.8930  131.6986  162.2509 H   0  0  0  0  0  0  0  0  0  0  0  0
  124.8249  133.8871  162.9705 H   0  0  0  0  0  0  0  0  0  0  0  0
  132.0616  134.0245  157.6430 H   0  0  0  0  0  0  0  0  0  0  0  0
  132.2159  132.6369  158.7477 H   0  0  0  0  0  0  0  0  0  0  0  0
  132.3090  134.7798  159.9927 H   0  0  0  0  0  0  0  0  0  0  0  0
  130.8682  133.8388  160.4463 H   0  0  0  0  0  0  0  0  0  0  0  0
  130.2293  135.8760  161.2944 H   0  0  0  0  0  0  0  0  0  0  0  0
  129.4554  137.0620  160.2160 H   0  0  0  0  0  0  0  0  0  0  0  0
  132.4179  136.3365  162.0126 H   0  0  0  0  0  0  0  0  0  0  0  0
  131.7968  137.7001  163.1332 H   0  0  0  0  0  0  0  0  0  0  0  0
  131.2482  139.7142  164.4377 H   0  0  0  0  0  0  0  0  0  0  0  0
  130.6275  139.6942  159.5493 H   0  0  0  0  0  0  0  0  0  0  0  0
  128.7366  134.4444  159.6615 H   0  0  0  0  0  0  0  0  0  0  0  0
  128.5226  135.8550  158.5981 H   0  0  0  0  0  0  0  0  0  0  0  0
  129.7525  134.6802  156.7925 H   0  0  0  0  0  0  0  0  0  0  0  0
  128.3364  133.7380  157.3185 H   0  0  0  0  0  0  0  0  0  0  0  0
  131.7133  130.6851  157.7350 H   0  0  0  0  0  0  0  0  0  0  0  0
  132.0488  129.2894  155.7343 H   0  0  0  0  0  0  0  0  0  0  0  0
  1  2  1  0
  1 38  1  0
  1 39  1  0
  1 40  1  0
  2 37  2  0
  2  3  1  0
  3  4  2  0
  3 41  1  0
  4  5  1  0
  4 42  1  0
  5  6  1  0
  5 36  2  0
  6 35  1  0
  6  7  1  1
  6 18  1  0
  7  8  2  0
  7  9  1  0
  9 10  1  0
  9 43  1  0
 10 11  1  0
 10 44  1  0
 10 45  1  0
 11 17  1  0
 11 12  2  0
 12 13  1  0
 12 46  1  0
 13 14  2  0
 13 47  1  0
 14 15  1  0
 14 48  1  0
 15 16  1  0
 15 17  2  0
 18 19  1  0
 18 49  1  0
 18 50  1  0
 19 20  1  0
 19 51  1  0
 19 52  1  0
 20 21  1  6
 20 22  1  0
 20 34  1  0
 22 23  1  0
 22 53  1  0
 22 54  1  0
 23 24  1  6
 23 25  1  0
 23 26  1  0
 25 55  1  0
 26 33  1  0
 26 27  2  0
 27 28  1  0
 27 56  1  0
 28 29  2  0
 28 57  1  0
 29 30  1  0
 29 31  1  0
 31 32  1  0
 31 33  2  0
 33 58  1  0
 34 35  1  0
 34 59  1  0
 34 60  1  0
 35 61  1  0
 35 62  1  0
 36 37  1  0
 36 63  1  0
 37 64  1  0
M  CHG  1  20   1
M  END
>  <DOCK_score>  (1) 
-55.915859

>  <SMILES>  (1) 
Cc1ccc(C2(C(=O)NCc3cccc(F)n3)CC[NH+](C[C@H](O)c3ccc(F)c(F)c3)CC2)cc1

$$$$
