Clc1cccnc1C[NH2+][C@@H](Cc1ccccc1)Cc1ccc(NC2CCC2)cc1
     RDKit          3D

 58 61  0  0  1  0  0  0  0  0999 V2000
  126.2848  135.4285  158.6664 Cl  0  0  0  0  0  0  0  0  0  0  0  0
  127.5729  136.0497  159.6505 C   0  0  0  0  0  0  0  0  0  0  0  0
  127.3077  136.5685  160.9100 C   0  0  0  0  0  0  0  0  0  0  0  0
  128.3671  137.0576  161.6584 C   0  0  0  0  0  0  0  0  0  0  0  0
  129.6446  137.0033  161.1332 C   0  0  0  0  0  0  0  0  0  0  0  0
  129.8607  136.4991  159.9341 N   0  0  0  0  0  0  0  0  0  0  0  0
  128.8775  136.0293  159.1917 C   0  0  0  0  0  0  0  0  0  0  0  0
  129.1787  135.4631  157.8279 C   0  0  0  0  0  0  0  0  0  0  0  0
  130.3533  134.5848  157.9108 N   0  0  0  0  0  0  0  0  0  0  0  0
  130.5548  134.2057  156.9976 H   0  0  0  0  0  0  0  0  0  0  0  0
  131.1471  135.1147  158.2378 H   0  0  0  0  0  0  0  0  0  0  0  0
  130.0783  133.4866  158.8470 C   0  0  1  0  0  0  0  0  0  0  0  0
  129.5281  133.8706  159.7059 H   0  0  0  0  0  0  0  0  0  0  0  0
  129.2434  132.4143  158.1444 C   0  0  0  0  0  0  0  0  0  0  0  0
  130.0041  131.8833  156.9568 C   0  0  0  0  0  0  0  0  0  0  0  0
  129.8530  132.4767  155.7175 C   0  0  0  0  0  0  0  0  0  0  0  0
  130.5546  131.9926  154.6292 C   0  0  0  0  0  0  0  0  0  0  0  0
  131.3993  130.9086  154.7780 C   0  0  0  0  0  0  0  0  0  0  0  0
  131.5465  130.3119  156.0163 C   0  0  0  0  0  0  0  0  0  0  0  0
  130.8489  130.7992  157.1057 C   0  0  0  0  0  0  0  0  0  0  0  0
  131.3996  132.8762  159.3191 C   0  0  0  0  0  0  0  0  0  0  0  0
  131.9926  133.7391  160.4028 C   0  0  0  0  0  0  0  0  0  0  0  0
  131.6748  133.4990  161.7272 C   0  0  0  0  0  0  0  0  0  0  0  0
  132.2211  134.2843  162.7233 C   0  0  0  0  0  0  0  0  0  0  0  0
  133.0815  135.3233  162.3930 C   0  0  0  0  0  0  0  0  0  0  0  0
  133.6317  136.1228  163.3975 N   0  0  0  0  0  0  0  0  0  0  0  0
  134.5391  137.2184  163.0473 C   0  0  0  0  0  0  0  0  0  0  0  0
  135.9906  136.7660  162.8161 C   0  0  0  0  0  0  0  0  0  0  0  0
  136.4222  138.0445  163.5572 C   0  0  0  0  0  0  0  0  0  0  0  0
  135.0576  138.0019  164.2647 C   0  0  0  0  0  0  0  0  0  0  0  0
  133.3943  135.5653  161.0614 C   0  0  0  0  0  0  0  0  0  0  0  0
  132.8490  134.7727  160.0706 C   0  0  0  0  0  0  0  0  0  0  0  0
  126.2995  136.5943  161.2965 H   0  0  0  0  0  0  0  0  0  0  0  0
  128.1971  137.4717  162.6411 H   0  0  0  0  0  0  0  0  0  0  0  0
  130.4757  137.3785  161.7119 H   0  0  0  0  0  0  0  0  0  0  0  0
  128.3211  134.8906  157.4746 H   0  0  0  0  0  0  0  0  0  0  0  0
  129.3827  136.2779  157.1332 H   0  0  0  0  0  0  0  0  0  0  0  0
  129.0394  131.5995  158.8392 H   0  0  0  0  0  0  0  0  0  0  0  0
  128.3021  132.8491  157.8080 H   0  0  0  0  0  0  0  0  0  0  0  0
  129.1897  133.3209  155.6003 H   0  0  0  0  0  0  0  0  0  0  0  0
  130.4393  132.4586  153.6618 H   0  0  0  0  0  0  0  0  0  0  0  0
  131.9441  130.5276  153.9268 H   0  0  0  0  0  0  0  0  0  0  0  0
  132.2061  129.4647  156.1324 H   0  0  0  0  0  0  0  0  0  0  0  0
  130.9637  130.3328  158.0730 H   0  0  0  0  0  0  0  0  0  0  0  0
  131.2180  131.8752  159.7102 H   0  0  0  0  0  0  0  0  0  0  0  0
  132.0932  132.8183  158.4804 H   0  0  0  0  0  0  0  0  0  0  0  0
  131.0019  132.6938  161.9830 H   0  0  0  0  0  0  0  0  0  0  0  0
  131.9758  134.0934  163.7578 H   0  0  0  0  0  0  0  0  0  0  0  0
  133.4129  135.9527  164.3271 H   0  0  0  0  0  0  0  0  0  0  0  0
  134.1481  137.8541  162.2529 H   0  0  0  0  0  0  0  0  0  0  0  0
  136.2506  135.8475  163.3422 H   0  0  0  0  0  0  0  0  0  0  0  0
  136.2809  136.7500  161.7657 H   0  0  0  0  0  0  0  0  0  0  0  0
  136.5475  138.9064  162.9017 H   0  0  0  0  0  0  0  0  0  0  0  0
  137.2674  137.8979  164.2296 H   0  0  0  0  0  0  0  0  0  0  0  0
  134.5957  138.9823  164.3819 H   0  0  0  0  0  0  0  0  0  0  0  0
  135.0607  137.4225  165.1878 H   0  0  0  0  0  0  0  0  0  0  0  0
  134.0627  136.3728  160.8011 H   0  0  0  0  0  0  0  0  0  0  0  0
  133.0915  134.9606  159.0351 H   0  0  0  0  0  0  0  0  0  0  0  0
  1  2  1  0
  2  7  2  0
  2  3  1  0
  3  4  2  0
  3 33  1  0
  4  5  1  0
  4 34  1  0
  5  6  2  0
  5 35  1  0
  6  7  1  0
  7  8  1  0
  8  9  1  0
  8 36  1  0
  8 37  1  0
  9 10  1  0
  9 11  1  0
  9 12  1  0
 12 13  1  1
 12 14  1  0
 12 21  1  0
 14 15  1  0
 14 38  1  0
 14 39  1  0
 15 20  1  0
 15 16  2  0
 16 17  1  0
 16 40  1  0
 17 18  2  0
 17 41  1  0
 18 19  1  0
 18 42  1  0
 19 20  2  0
 19 43  1  0
 20 44  1  0
 21 22  1  0
 21 45  1  0
 21 46  1  0
 22 32  1  0
 22 23  2  0
 23 24  1  0
 23 47  1  0
 24 25  2  0
 24 48  1  0
 25 26  1  0
 25 31  1  0
 26 27  1  0
 26 49  1  0
 27 30  1  0
 27 28  1  0
 27 50  1  0
 28 29  1  0
 28 51  1  0
 28 52  1  0
 29 30  1  0
 29 53  1  0
 29 54  1  0
 30 55  1  0
 30 56  1  0
 31 32  2  0
 31 57  1  0
 32 58  1  0
M  CHG  1   9   1
M  END
>  <DOCK_score>  (1) 
-56.305836

>  <SMILES>  (1) 
Clc1cccnc1C[NH2+][C@@H](Cc1ccccc1)Cc1ccc(NC2CCC2)cc1

$$$$
