O=C(CC[C@H](Nc1[nH]cc(-c2cccnc2)[nH+]1)c1ccccc1)N1CCC(=O)C(F)(F)CC1
     RDKit          3D

 59 62  0  0  1  0  0  0  0  0999 V2000
  130.2690  139.4987  161.1040 O   0  0  0  0  0  0  0  0  0  0  0  0
  130.7776  138.5687  161.6932 C   0  0  0  0  0  0  0  0  0  0  0  0
  130.4414  137.1532  161.3001 C   0  0  0  0  0  0  0  0  0  0  0  0
  129.4433  137.1694  160.1407 C   0  0  0  0  0  0  0  0  0  0  0  0
  129.1020  135.7322  159.7415 C   0  0  2  0  0  0  0  0  0  0  0  0
  129.0030  135.1199  160.6379 H   0  0  0  0  0  0  0  0  0  0  0  0
  130.1709  135.1928  158.8973 N   0  0  0  0  0  0  0  0  0  0  0  0
  130.0830  133.8997  158.4110 C   0  0  0  0  0  0  0  0  0  0  0  0
  129.4566  132.8613  159.0289 N   0  0  0  0  0  0  0  0  0  0  0  0
  128.9955  132.8938  159.8816 H   0  0  0  0  0  0  0  0  0  0  0  0
  129.5955  131.7594  158.2205 C   0  0  0  0  0  0  0  0  0  0  0  0
  130.3095  132.1535  157.1371 C   0  0  0  0  0  0  0  0  0  0  0  0
  130.7088  131.2949  155.9953 C   0  0  0  0  0  0  0  0  0  0  0  0
  130.2844  131.5959  154.6977 C   0  0  0  0  0  0  0  0  0  0  0  0
  130.6893  130.7669  153.6660 C   0  0  0  0  0  0  0  0  0  0  0  0
  131.4837  129.6709  153.9505 C   0  0  0  0  0  0  0  0  0  0  0  0
  131.8641  129.4092  155.1860 N   0  0  0  0  0  0  0  0  0  0  0  0
  131.5085  130.1721  156.1994 C   0  0  0  0  0  0  0  0  0  0  0  0
  130.5941  133.4720  157.2825 N   0  0  0  0  0  0  0  0  0  0  0  0
  131.0962  134.0119  156.6521 H   0  0  0  0  0  0  0  0  0  0  0  0
  127.8030  135.7181  158.9776 C   0  0  0  0  0  0  0  0  0  0  0  0
  126.6063  135.5641  159.6521 C   0  0  0  0  0  0  0  0  0  0  0  0
  125.4143  135.5551  158.9518 C   0  0  0  0  0  0  0  0  0  0  0  0
  125.4200  135.6918  157.5763 C   0  0  0  0  0  0  0  0  0  0  0  0
  126.6171  135.8405  156.9013 C   0  0  0  0  0  0  0  0  0  0  0  0
  127.8087  135.8535  157.6019 C   0  0  0  0  0  0  0  0  0  0  0  0
  131.6435  138.8009  162.6995 N   0  0  0  0  0  0  0  0  0  0  0  0
  132.2889  137.7010  163.4466 C   0  0  0  0  0  0  0  0  0  0  0  0
  133.5968  137.3904  162.8839 C   0  0  0  0  0  0  0  0  0  0  0  0
  134.4183  138.6875  162.8369 C   0  0  0  0  0  0  0  0  0  0  0  0
  135.3018  138.8962  163.6335 O   0  0  0  0  0  0  0  0  0  0  0  0
  134.0939  139.6634  161.7932 C   0  0  0  0  0  0  0  0  0  0  0  0
  135.2819  140.2800  161.3865 F   0  0  0  0  0  0  0  0  0  0  0  0
  133.5699  138.9719  160.6957 F   0  0  0  0  0  0  0  0  0  0  0  0
  133.0763  140.7814  162.1982 C   0  0  0  0  0  0  0  0  0  0  0  0
  131.9902  140.1169  163.1047 C   0  0  0  0  0  0  0  0  0  0  0  0
  131.3499  136.6366  160.9903 H   0  0  0  0  0  0  0  0  0  0  0  0
  130.0008  136.6345  162.1516 H   0  0  0  0  0  0  0  0  0  0  0  0
  128.5349  137.6858  160.4503 H   0  0  0  0  0  0  0  0  0  0  0  0
  129.8839  137.6879  159.2892 H   0  0  0  0  0  0  0  0  0  0  0  0
  130.9402  135.7418  158.6791 H   0  0  0  0  0  0  0  0  0  0  0  0
  129.2130  130.7678  158.4131 H   0  0  0  0  0  0  0  0  0  0  0  0
  129.6600  132.4557  154.5049 H   0  0  0  0  0  0  0  0  0  0  0  0
  130.3844  130.9712  152.6502 H   0  0  0  0  0  0  0  0  0  0  0  0
  131.7977  129.0194  153.1484 H   0  0  0  0  0  0  0  0  0  0  0  0
  131.8398  129.9253  157.1971 H   0  0  0  0  0  0  0  0  0  0  0  0
  126.6022  135.4540  160.7265 H   0  0  0  0  0  0  0  0  0  0  0  0
  124.4791  135.4385  159.4791 H   0  0  0  0  0  0  0  0  0  0  0  0
  124.4890  135.6820  157.0290 H   0  0  0  0  0  0  0  0  0  0  0  0
  126.6213  135.9470  155.8266 H   0  0  0  0  0  0  0  0  0  0  0  0
  128.7438  135.9697  157.0746 H   0  0  0  0  0  0  0  0  0  0  0  0
  132.4080  137.9969  164.4890 H   0  0  0  0  0  0  0  0  0  0  0  0
  131.6571  136.8142  163.3963 H   0  0  0  0  0  0  0  0  0  0  0  0
  134.1027  136.6571  163.5120 H   0  0  0  0  0  0  0  0  0  0  0  0
  133.4786  136.9930  161.8758 H   0  0  0  0  0  0  0  0  0  0  0  0
  132.6096  141.1987  161.3058 H   0  0  0  0  0  0  0  0  0  0  0  0
  133.5902  141.5677  162.7510 H   0  0  0  0  0  0  0  0  0  0  0  0
  131.0932  140.7360  163.0858 H   0  0  0  0  0  0  0  0  0  0  0  0
  132.3642  140.0803  164.1278 H   0  0  0  0  0  0  0  0  0  0  0  0
  1  2  2  0
  2  3  1  0
  2 27  1  0
  3  4  1  0
  3 37  1  0
  3 38  1  0
  4  5  1  0
  4 39  1  0
  4 40  1  0
  5  6  1  1
  5  7  1  0
  5 21  1  0
  7 41  1  0
  8  7  1  0
  8 19  2  0
  8  9  1  0
  9 10  1  0
  9 11  1  0
 11 12  2  0
 11 42  1  0
 12 13  1  0
 12 19  1  0
 13 18  1  0
 13 14  2  0
 14 15  1  0
 14 43  1  0
 15 16  2  0
 15 44  1  0
 16 17  1  0
 16 45  1  0
 17 18  2  0
 18 46  1  0
 19 20  1  0
 21 26  1  0
 21 22  2  0
 22 23  1  0
 22 47  1  0
 23 24  2  0
 23 48  1  0
 24 25  1  0
 24 49  1  0
 25 26  2  0
 25 50  1  0
 26 51  1  0
 27 36  1  0
 27 28  1  0
 28 29  1  0
 28 52  1  0
 28 53  1  0
 29 30  1  0
 29 54  1  0
 29 55  1  0
 30 31  2  0
 30 32  1  0
 32 33  1  0
 32 34  1  0
 32 35  1  0
 35 36  1  0
 35 56  1  0
 35 57  1  0
 36 58  1  0
 36 59  1  0
M  CHG  1  19   1
M  END
>  <DOCK_score>  (1) 
-61.070099

>  <SMILES>  (1) 
O=C(CC[C@H](Nc1[nH]cc(-c2cccnc2)[nH+]1)c1ccccc1)N1CCC(=O)C(F)(F)CC1

$$$$
