CC=C[C@](O)(c1ccccc1)c1c(C#N)cccc1N1CC[NH+](C(c2ccccc2)c2ccccc2)CC1
     RDKit          3D

 72 76  0  0  1  0  0  0  0  0999 V2000
  135.7802  135.6575  163.9042 C   0  0  0  0  0  0  0  0  0  0  0  0
  135.4195  137.1152  163.7773 C   0  0  0  0  0  0  0  0  0  0  0  0
  134.2528  137.4615  163.2924 C   0  0  0  0  0  0  0  0  0  0  0  0
  133.8922  138.9191  163.1655 C   0  0  2  0  0  0  0  0  0  0  0  0
  134.5555  139.6648  164.1883 O   0  0  0  0  0  0  0  0  0  0  0  0
  132.4012  139.0823  163.3119 C   0  0  0  0  0  0  0  0  0  0  0  0
  131.6833  138.2008  164.0983 C   0  0  0  0  0  0  0  0  0  0  0  0
  130.3162  138.3528  164.2356 C   0  0  0  0  0  0  0  0  0  0  0  0
  129.6658  139.3813  163.5797 C   0  0  0  0  0  0  0  0  0  0  0  0
  130.3830  140.2599  162.7896 C   0  0  0  0  0  0  0  0  0  0  0  0
  131.7506  140.1103  162.6553 C   0  0  0  0  0  0  0  0  0  0  0  0
  134.3228  139.4273  161.8138 C   0  0  0  0  0  0  0  0  0  0  0  0
  135.2392  140.4754  161.7192 C   0  0  0  0  0  0  0  0  0  0  0  0
  135.7745  141.0712  162.9063 C   0  0  0  0  0  0  0  0  0  0  0  0
  136.1991  141.5436  163.8481 N   0  0  0  0  0  0  0  0  0  0  0  0
  135.6375  140.9369  160.4629 C   0  0  0  0  0  0  0  0  0  0  0  0
  135.1161  140.3645  159.3204 C   0  0  0  0  0  0  0  0  0  0  0  0
  134.2081  139.3268  159.4140 C   0  0  0  0  0  0  0  0  0  0  0  0
  133.8095  138.8556  160.6599 C   0  0  0  0  0  0  0  0  0  0  0  0
  132.8914  137.8064  160.7489 N   0  0  0  0  0  0  0  0  0  0  0  0
  133.4414  136.5744  160.1658 C   0  0  0  0  0  0  0  0  0  0  0  0
  132.4311  135.4378  160.3364 C   0  0  0  0  0  0  0  0  0  0  0  0
  131.1728  135.7964  159.6690 N   0  0  0  0  0  0  0  0  0  0  0  0
  131.3470  135.9602  158.6888 H   0  0  0  0  0  0  0  0  0  0  0  0
  130.2094  134.6975  159.8177 C   0  0  0  0  0  0  0  0  0  0  0  0
  128.9183  135.0653  159.1329 C   0  0  0  0  0  0  0  0  0  0  0  0
  127.7194  134.5617  159.6018 C   0  0  0  0  0  0  0  0  0  0  0  0
  126.5347  134.9031  158.9767 C   0  0  0  0  0  0  0  0  0  0  0  0
  126.5494  135.7393  157.8769 C   0  0  0  0  0  0  0  0  0  0  0  0
  127.7493  136.2390  157.4042 C   0  0  0  0  0  0  0  0  0  0  0  0
  128.9336  135.9020  158.0326 C   0  0  0  0  0  0  0  0  0  0  0  0
  130.7721  133.4480  159.1908 C   0  0  0  0  0  0  0  0  0  0  0  0
  130.5239  133.1705  157.8595 C   0  0  0  0  0  0  0  0  0  0  0  0
  131.0440  132.0267  157.2833 C   0  0  0  0  0  0  0  0  0  0  0  0
  131.8038  131.1552  158.0408 C   0  0  0  0  0  0  0  0  0  0  0  0
  132.0478  131.4300  159.3735 C   0  0  0  0  0  0  0  0  0  0  0  0
  131.5318  132.5764  159.9485 C   0  0  0  0  0  0  0  0  0  0  0  0
  130.6233  137.0147  160.2786 C   0  0  0  0  0  0  0  0  0  0  0  0
  131.6185  138.1644  160.1075 C   0  0  0  0  0  0  0  0  0  0  0  0
  135.7549  135.1899  162.9199 H   0  0  0  0  0  0  0  0  0  0  0  0
  136.7819  135.5663  164.3241 H   0  0  0  0  0  0  0  0  0  0  0  0
  135.0646  135.1619  164.5603 H   0  0  0  0  0  0  0  0  0  0  0  0
  136.1228  137.8744  164.0861 H   0  0  0  0  0  0  0  0  0  0  0  0
  133.5495  136.7023  162.9836 H   0  0  0  0  0  0  0  0  0  0  0  0
  134.4996  139.2639  165.0665 H   0  0  0  0  0  0  0  0  0  0  0  0
  132.1908  137.3951  164.6077 H   0  0  0  0  0  0  0  0  0  0  0  0
  129.7557  137.6662  164.8527 H   0  0  0  0  0  0  0  0  0  0  0  0
  128.5971  139.4980  163.6843 H   0  0  0  0  0  0  0  0  0  0  0  0
  129.8748  141.0632  162.2768 H   0  0  0  0  0  0  0  0  0  0  0  0
  132.3109  140.7965  162.0376 H   0  0  0  0  0  0  0  0  0  0  0  0
  136.3504  141.7445  160.3853 H   0  0  0  0  0  0  0  0  0  0  0  0
  135.4220  140.7258  158.3497 H   0  0  0  0  0  0  0  0  0  0  0  0
  133.8071  138.8800  158.5162 H   0  0  0  0  0  0  0  0  0  0  0  0
  133.6376  136.7303  159.1050 H   0  0  0  0  0  0  0  0  0  0  0  0
  134.3702  136.3147  160.6736 H   0  0  0  0  0  0  0  0  0  0  0  0
  132.2454  135.2731  161.3978 H   0  0  0  0  0  0  0  0  0  0  0  0
  132.8311  134.5265  159.8919 H   0  0  0  0  0  0  0  0  0  0  0  0
  130.0213  134.5198  160.8765 H   0  0  0  0  0  0  0  0  0  0  0  0
  127.7079  133.9047  160.4588 H   0  0  0  0  0  0  0  0  0  0  0  0
  125.5975  134.5126  159.3452 H   0  0  0  0  0  0  0  0  0  0  0  0
  125.6246  136.0028  157.3850 H   0  0  0  0  0  0  0  0  0  0  0  0
  127.7612  136.8923  156.5443 H   0  0  0  0  0  0  0  0  0  0  0  0
  129.8707  136.2919  157.6636 H   0  0  0  0  0  0  0  0  0  0  0  0
  129.9265  133.8491  157.2686 H   0  0  0  0  0  0  0  0  0  0  0  0
  130.8533  131.8118  156.2421 H   0  0  0  0  0  0  0  0  0  0  0  0
  132.2066  130.2593  157.5918 H   0  0  0  0  0  0  0  0  0  0  0  0
  132.6410  130.7490  159.9656 H   0  0  0  0  0  0  0  0  0  0  0  0
  131.7221  132.7909  160.9897 H   0  0  0  0  0  0  0  0  0  0  0  0
  130.4468  136.8419  161.3402 H   0  0  0  0  0  0  0  0  0  0  0  0
  129.6830  137.2725  159.7912 H   0  0  0  0  0  0  0  0  0  0  0  0
  131.2174  139.0649  160.5728 H   0  0  0  0  0  0  0  0  0  0  0  0
  131.7848  138.3466  159.0457 H   0  0  0  0  0  0  0  0  0  0  0  0
  1  2  1  0
  1 40  1  0
  1 41  1  0
  1 42  1  0
  2  3  2  0
  2 43  1  0
  3 44  1  0
  4  3  1  0
  4  5  1  1
  4  6  1  0
  4 12  1  0
  5 45  1  0
  6 11  1  0
  6  7  2  0
  7  8  1  0
  7 46  1  0
  8  9  2  0
  8 47  1  0
  9 10  1  0
  9 48  1  0
 10 11  2  0
 10 49  1  0
 11 50  1  0
 12 19  1  0
 12 13  2  0
 13 14  1  0
 13 16  1  0
 14 15  3  0
 16 17  2  0
 16 51  1  0
 17 18  1  0
 17 52  1  0
 18 19  2  0
 18 53  1  0
 19 20  1  0
 20 39  1  0
 20 21  1  0
 21 22  1  0
 21 54  1  0
 21 55  1  0
 22 23  1  0
 22 56  1  0
 22 57  1  0
 23 24  1  0
 23 25  1  0
 23 38  1  0
 25 26  1  0
 25 32  1  0
 25 58  1  0
 26 31  1  0
 26 27  2  0
 27 28  1  0
 27 59  1  0
 28 29  2  0
 28 60  1  0
 29 30  1  0
 29 61  1  0
 30 31  2  0
 30 62  1  0
 31 63  1  0
 32 37  1  0
 32 33  2  0
 33 34  1  0
 33 64  1  0
 34 35  2  0
 34 65  1  0
 35 36  1  0
 35 66  1  0
 36 37  2  0
 36 67  1  0
 37 68  1  0
 38 39  1  0
 38 69  1  0
 38 70  1  0
 39 71  1  0
 39 72  1  0
M  CHG  1  23   1
M  END
>  <DOCK_score>  (1) 
-57.800205

>  <SMILES>  (1) 
CC=C[C@](O)(c1ccccc1)c1c(C#N)cccc1N1CC[NH+](C(c2ccccc2)c2ccccc2)CC1

$$$$
