CCc1ccc(-c2c[nH]c(N[C@@H](CC(C)=CCCc3ccccc3)c3ccccc3)[nH+]2)cc1
     RDKit          3D

 67 70  0  0  1  0  0  0  0  0999 V2000
  130.0668  128.0946  151.6301 C   0  0  0  0  0  0  0  0  0  0  0  0
  131.0913  129.2256  151.7380 C   0  0  0  0  0  0  0  0  0  0  0  0
  130.8347  130.0178  152.9940 C   0  0  0  0  0  0  0  0  0  0  0  0
  131.4529  129.6554  154.1766 C   0  0  0  0  0  0  0  0  0  0  0  0
  131.2248  130.3807  155.3284 C   0  0  0  0  0  0  0  0  0  0  0  0
  130.3612  131.4744  155.3004 C   0  0  0  0  0  0  0  0  0  0  0  0
  130.1080  132.2549  156.5361 C   0  0  0  0  0  0  0  0  0  0  0  0
  129.5866  131.7730  157.6915 C   0  0  0  0  0  0  0  0  0  0  0  0
  129.5245  132.8267  158.5708 N   0  0  0  0  0  0  0  0  0  0  0  0
  129.1950  132.7955  159.4824 H   0  0  0  0  0  0  0  0  0  0  0  0
  130.0103  133.9225  157.9263 C   0  0  0  0  0  0  0  0  0  0  0  0
  130.1186  135.1929  158.4655 N   0  0  0  0  0  0  0  0  0  0  0  0
  129.6899  135.4427  159.8438 C   0  0  1  0  0  0  0  0  0  0  0  0
  130.2696  134.8179  160.5235 H   0  0  0  0  0  0  0  0  0  0  0  0
  129.9147  136.9163  160.1889 C   0  0  0  0  0  0  0  0  0  0  0  0
  131.3658  137.1365  160.5311 C   0  0  0  0  0  0  0  0  0  0  0  0
  131.9891  136.3933  161.6844 C   0  0  0  0  0  0  0  0  0  0  0  0
  132.0852  137.9737  159.8259 C   0  0  0  0  0  0  0  0  0  0  0  0
  133.5638  138.1025  160.0875 C   0  0  0  0  0  0  0  0  0  0  0  0
  133.8867  139.5423  160.4924 C   0  0  0  0  0  0  0  0  0  0  0  0
  135.3651  139.6709  160.7540 C   0  0  0  0  0  0  0  0  0  0  0  0
  135.8639  139.4524  162.0246 C   0  0  0  0  0  0  0  0  0  0  0  0
  137.2207  139.5657  162.2634 C   0  0  0  0  0  0  0  0  0  0  0  0
  138.0776  139.9078  161.2341 C   0  0  0  0  0  0  0  0  0  0  0  0
  137.5781  140.1315  159.9646 C   0  0  0  0  0  0  0  0  0  0  0  0
  136.2220  140.0130  159.7245 C   0  0  0  0  0  0  0  0  0  0  0  0
  128.2263  135.1120  159.9824 C   0  0  0  0  0  0  0  0  0  0  0  0
  127.7313  134.6597  161.1913 C   0  0  0  0  0  0  0  0  0  0  0  0
  126.3879  134.3605  161.3197 C   0  0  0  0  0  0  0  0  0  0  0  0
  125.5411  134.5048  160.2366 C   0  0  0  0  0  0  0  0  0  0  0  0
  126.0370  134.9520  159.0263 C   0  0  0  0  0  0  0  0  0  0  0  0
  127.3796  135.2555  158.8990 C   0  0  0  0  0  0  0  0  0  0  0  0
  130.3627  133.5757  156.7124 N   0  0  0  0  0  0  0  0  0  0  0  0
  130.7430  134.1691  156.0459 H   0  0  0  0  0  0  0  0  0  0  0  0
  129.7367  131.8323  154.1068 C   0  0  0  0  0  0  0  0  0  0  0  0
  129.9765  131.1028  152.9600 C   0  0  0  0  0  0  0  0  0  0  0  0
  130.1547  127.4402  152.4974 H   0  0  0  0  0  0  0  0  0  0  0  0
  129.0625  128.5167  151.5938 H   0  0  0  0  0  0  0  0  0  0  0  0
  130.2528  127.5212  150.7220 H   0  0  0  0  0  0  0  0  0  0  0  0
  132.0960  128.8032  151.7745 H   0  0  0  0  0  0  0  0  0  0  0  0
  131.0037  129.8797  150.8709 H   0  0  0  0  0  0  0  0  0  0  0  0
  132.1185  128.8050  154.1982 H   0  0  0  0  0  0  0  0  0  0  0  0
  131.7115  130.0993  156.2505 H   0  0  0  0  0  0  0  0  0  0  0  0
  129.2787  130.7558  157.8835 H   0  0  0  0  0  0  0  0  0  0  0  0
  130.4784  135.9178  157.9306 H   0  0  0  0  0  0  0  0  0  0  0  0
  129.6453  137.5350  159.3329 H   0  0  0  0  0  0  0  0  0  0  0  0
  129.2947  137.1882  161.0431 H   0  0  0  0  0  0  0  0  0  0  0  0
  131.2222  135.8174  162.2025 H   0  0  0  0  0  0  0  0  0  0  0  0
  132.7584  135.7187  161.3088 H   0  0  0  0  0  0  0  0  0  0  0  0
  132.4373  137.1064  162.3763 H   0  0  0  0  0  0  0  0  0  0  0  0
  131.6188  138.5717  159.0568 H   0  0  0  0  0  0  0  0  0  0  0  0
  133.8507  137.4257  160.8924 H   0  0  0  0  0  0  0  0  0  0  0  0
  134.1164  137.8467  159.1835 H   0  0  0  0  0  0  0  0  0  0  0  0
  133.5998  140.2191  159.6876 H   0  0  0  0  0  0  0  0  0  0  0  0
  133.3340  139.7979  161.3965 H   0  0  0  0  0  0  0  0  0  0  0  0
  135.1939  139.1894  162.8299 H   0  0  0  0  0  0  0  0  0  0  0  0
  137.6109  139.3913  163.2554 H   0  0  0  0  0  0  0  0  0  0  0  0
  139.1371  140.0007  161.4217 H   0  0  0  0  0  0  0  0  0  0  0  0
  138.2475  140.3992  159.1604 H   0  0  0  0  0  0  0  0  0  0  0  0
  135.8318  140.1882  158.7328 H   0  0  0  0  0  0  0  0  0  0  0  0
  128.3936  134.5434  162.0365 H   0  0  0  0  0  0  0  0  0  0  0  0
  126.0003  134.0113  162.2653 H   0  0  0  0  0  0  0  0  0  0  0  0
  124.4920  134.2684  160.3361 H   0  0  0  0  0  0  0  0  0  0  0  0
  125.3755  135.0648  158.1801 H   0  0  0  0  0  0  0  0  0  0  0  0
  127.7671  135.6048  157.9536 H   0  0  0  0  0  0  0  0  0  0  0  0
  129.0664  132.6785  154.0794 H   0  0  0  0  0  0  0  0  0  0  0  0
  129.4928  131.3790  152.0347 H   0  0  0  0  0  0  0  0  0  0  0  0
  1  2  1  0
  1 37  1  0
  1 38  1  0
  1 39  1  0
  2  3  1  0
  2 40  1  0
  2 41  1  0
  3 36  2  0
  3  4  1  0
  4  5  2  0
  4 42  1  0
  5  6  1  0
  5 43  1  0
  6  7  1  0
  6 35  2  0
  7 33  1  0
  7  8  2  0
  8  9  1  0
  8 44  1  0
  9 10  1  0
  9 11  1  0
 11 12  1  0
 11 33  2  0
 12 13  1  0
 12 45  1  0
 13 14  1  1
 13 15  1  0
 13 27  1  0
 15 16  1  0
 15 46  1  0
 15 47  1  0
 16 17  1  0
 16 18  2  0
 17 48  1  0
 17 49  1  0
 17 50  1  0
 18 19  1  0
 18 51  1  0
 19 20  1  0
 19 52  1  0
 19 53  1  0
 20 21  1  0
 20 54  1  0
 20 55  1  0
 21 26  1  0
 21 22  2  0
 22 23  1  0
 22 56  1  0
 23 24  2  0
 23 57  1  0
 24 25  1  0
 24 58  1  0
 25 26  2  0
 25 59  1  0
 26 60  1  0
 27 32  1  0
 27 28  2  0
 28 29  1  0
 28 61  1  0
 29 30  2  0
 29 62  1  0
 30 31  1  0
 30 63  1  0
 31 32  2  0
 31 64  1  0
 32 65  1  0
 33 34  1  0
 35 36  1  0
 35 66  1  0
 36 67  1  0
M  CHG  1  33   1
M  END
>  <DOCK_score>  (1) 
-66.660995

>  <SMILES>  (1) 
CCc1ccc(-c2c[nH]c(N[C@@H](CC(C)=CCCc3ccccc3)c3ccccc3)[nH+]2)cc1

$$$$
