Clc1ccc([C@H](Nc2[nH]cc(-c3ccc(Br)cc3)[nH+]2)c2ccccc2)cc1
     RDKit          3D

 45 48  0  0  1  0  0  0  0  0999 V2000
  131.4206  141.1369  161.9118 Cl  0  0  0  0  0  0  0  0  0  0  0  0
  130.9631  139.5389  161.4109 C   0  0  0  0  0  0  0  0  0  0  0  0
  130.8183  138.5339  162.3508 C   0  0  0  0  0  0  0  0  0  0  0  0
  130.4546  137.2617  161.9513 C   0  0  0  0  0  0  0  0  0  0  0  0
  130.2348  136.9935  160.6131 C   0  0  0  0  0  0  0  0  0  0  0  0
  129.8382  135.6061  160.1782 C   0  0  2  0  0  0  0  0  0  0  0  0
  130.2621  134.8746  160.8660 H   0  0  0  0  0  0  0  0  0  0  0  0
  130.3432  135.3551  158.8261 N   0  0  0  0  0  0  0  0  0  0  0  0
  130.1011  134.1386  158.2114 C   0  0  0  0  0  0  0  0  0  0  0  0
  129.4052  133.1018  158.7526 N   0  0  0  0  0  0  0  0  0  0  0  0
  128.9935  133.0822  159.6306 H   0  0  0  0  0  0  0  0  0  0  0  0
  129.3934  132.0879  157.8256 C   0  0  0  0  0  0  0  0  0  0  0  0
  130.0817  132.5340  156.7457 C   0  0  0  0  0  0  0  0  0  0  0  0
  130.3291  131.7768  155.4945 C   0  0  0  0  0  0  0  0  0  0  0  0
  129.8626  132.2677  154.2762 C   0  0  0  0  0  0  0  0  0  0  0  0
  130.1008  131.5626  153.1141 C   0  0  0  0  0  0  0  0  0  0  0  0
  130.7908  130.3634  153.1586 C   0  0  0  0  0  0  0  0  0  0  0  0
  131.1063  129.3981  151.5634 Br  0  0  0  0  0  0  0  0  0  0  0  0
  131.2512  129.8687  154.3666 C   0  0  0  0  0  0  0  0  0  0  0  0
  131.0238  130.5691  155.5335 C   0  0  0  0  0  0  0  0  0  0  0  0
  130.4993  133.7975  157.0103 N   0  0  0  0  0  0  0  0  0  0  0  0
  131.0125  134.3580  156.4075 H   0  0  0  0  0  0  0  0  0  0  0  0
  128.3357  135.4886  160.1830 C   0  0  0  0  0  0  0  0  0  0  0  0
  127.6794  135.0628  161.3225 C   0  0  0  0  0  0  0  0  0  0  0  0
  126.3010  134.9591  161.3282 C   0  0  0  0  0  0  0  0  0  0  0  0
  125.5795  135.2725  160.1914 C   0  0  0  0  0  0  0  0  0  0  0  0
  126.2363  135.6934  159.0503 C   0  0  0  0  0  0  0  0  0  0  0  0
  127.6144  135.8011  159.0459 C   0  0  0  0  0  0  0  0  0  0  0  0
  130.3843  137.9960  159.6730 C   0  0  0  0  0  0  0  0  0  0  0  0
  130.7434  139.2697  160.0718 C   0  0  0  0  0  0  0  0  0  0  0  0
  130.9901  138.7433  163.3963 H   0  0  0  0  0  0  0  0  0  0  0  0
  130.3416  136.4771  162.6848 H   0  0  0  0  0  0  0  0  0  0  0  0
  130.8474  136.0414  158.3615 H   0  0  0  0  0  0  0  0  0  0  0  0
  128.9250  131.1209  157.9355 H   0  0  0  0  0  0  0  0  0  0  0  0
  129.3196  133.2006  154.2412 H   0  0  0  0  0  0  0  0  0  0  0  0
  129.7440  131.9445  152.1691 H   0  0  0  0  0  0  0  0  0  0  0  0
  131.7889  128.9325  154.3958 H   0  0  0  0  0  0  0  0  0  0  0  0
  131.3836  130.1824  156.4755 H   0  0  0  0  0  0  0  0  0  0  0  0
  128.2433  134.8143  162.2096 H   0  0  0  0  0  0  0  0  0  0  0  0
  125.7878  134.6307  162.2200 H   0  0  0  0  0  0  0  0  0  0  0  0
  124.5028  135.1889  160.1950 H   0  0  0  0  0  0  0  0  0  0  0  0
  125.6727  135.9381  158.1621 H   0  0  0  0  0  0  0  0  0  0  0  0
  128.1275  136.1299  158.1543 H   0  0  0  0  0  0  0  0  0  0  0  0
  130.2165  137.7848  158.6272 H   0  0  0  0  0  0  0  0  0  0  0  0
  130.8562  140.0538  159.3377 H   0  0  0  0  0  0  0  0  0  0  0  0
  1  2  1  0
  2 30  2  0
  2  3  1  0
  3  4  2  0
  3 31  1  0
  4  5  1  0
  4 32  1  0
  5  6  1  0
  5 29  2  0
  6  7  1  1
  6  8  1  0
  6 23  1  0
  8 33  1  0
  9  8  1  0
  9 21  2  0
  9 10  1  0
 10 11  1  0
 10 12  1  0
 12 13  2  0
 12 34  1  0
 13 14  1  0
 13 21  1  0
 14 20  1  0
 14 15  2  0
 15 16  1  0
 15 35  1  0
 16 17  2  0
 16 36  1  0
 17 18  1  0
 17 19  1  0
 19 20  2  0
 19 37  1  0
 20 38  1  0
 21 22  1  0
 23 28  1  0
 23 24  2  0
 24 25  1  0
 24 39  1  0
 25 26  2  0
 25 40  1  0
 26 27  1  0
 26 41  1  0
 27 28  2  0
 27 42  1  0
 28 43  1  0
 29 30  1  0
 29 44  1  0
 30 45  1  0
M  CHG  1  21   1
M  END
>  <DOCK_score>  (1) 
-60.02581

>  <SMILES>  (1) 
Clc1ccc([C@H](Nc2[nH]cc(-c3ccc(Br)cc3)[nH+]2)c2ccccc2)cc1

$$$$
