Cc1ccccc1Nc1ccc(C2=CC[N@H+](CC3=Cc4ccccc4OC3)CC2)cc1
     RDKit          3D

 60 64  0  0  1  0  0  0  0  0999 V2000
  127.8126  138.4456  164.0188 C   0  0  0  0  0  0  0  0  0  0  0  0
  126.9280  137.5109  164.8028 C   0  0  0  0  0  0  0  0  0  0  0  0
  127.0416  137.4418  166.1777 C   0  0  0  0  0  0  0  0  0  0  0  0
  126.2346  136.5799  166.8972 C   0  0  0  0  0  0  0  0  0  0  0  0
  125.3071  135.7885  166.2440 C   0  0  0  0  0  0  0  0  0  0  0  0
  125.1841  135.8568  164.8705 C   0  0  0  0  0  0  0  0  0  0  0  0
  125.9935  136.7220  164.1443 C   0  0  0  0  0  0  0  0  0  0  0  0
  125.8713  136.7939  162.7543 N   0  0  0  0  0  0  0  0  0  0  0  0
  126.6344  135.9532  161.9426 C   0  0  0  0  0  0  0  0  0  0  0  0
  126.5115  136.0259  160.5592 C   0  0  0  0  0  0  0  0  0  0  0  0
  127.2635  135.1975  159.7550 C   0  0  0  0  0  0  0  0  0  0  0  0
  128.1485  134.2837  160.3301 C   0  0  0  0  0  0  0  0  0  0  0  0
  128.9559  133.3936  159.4706 C   0  0  0  0  0  0  0  0  0  0  0  0
  128.3370  132.5607  158.6609 C   0  0  0  0  0  0  0  0  0  0  0  0
  129.0652  131.6123  157.7527 C   0  0  0  0  0  0  0  0  0  0  0  0
  130.4589  132.0379  157.5797 N   0  0  2  0  0  0  0  0  0  0  0  0
  130.4856  132.9071  157.0680 H   0  0  0  0  0  0  0  0  0  0  0  0
  131.1989  131.0080  156.8382 C   0  0  0  0  0  0  0  0  0  0  0  0
  130.9074  131.1423  155.3657 C   0  0  0  0  0  0  0  0  0  0  0  0
  130.9347  130.0668  154.5844 C   0  0  0  0  0  0  0  0  0  0  0  0
  130.6797  130.2438  153.1392 C   0  0  0  0  0  0  0  0  0  0  0  0
  130.4112  129.1586  152.3121 C   0  0  0  0  0  0  0  0  0  0  0  0
  130.1654  129.3700  150.9692 C   0  0  0  0  0  0  0  0  0  0  0  0
  130.1835  130.6525  150.4491 C   0  0  0  0  0  0  0  0  0  0  0  0
  130.4550  131.7372  151.2636 C   0  0  0  0  0  0  0  0  0  0  0  0
  130.7108  131.5401  152.6081 C   0  0  0  0  0  0  0  0  0  0  0  0
  131.0174  132.5787  153.4273 O   0  0  0  0  0  0  0  0  0  0  0  0
  130.5802  132.4928  154.7859 C   0  0  0  0  0  0  0  0  0  0  0  0
  131.0697  132.2277  158.9049 C   0  0  0  0  0  0  0  0  0  0  0  0
  130.4557  133.4714  159.5524 C   0  0  0  0  0  0  0  0  0  0  0  0
  128.2649  134.2086  161.7194 C   0  0  0  0  0  0  0  0  0  0  0  0
  127.5145  135.0435  162.5184 C   0  0  0  0  0  0  0  0  0  0  0  0
  127.3260  139.4170  163.9294 H   0  0  0  0  0  0  0  0  0  0  0  0
  128.7654  138.5628  164.5350 H   0  0  0  0  0  0  0  0  0  0  0  0
  127.9862  138.0334  163.0249 H   0  0  0  0  0  0  0  0  0  0  0  0
  127.7649  138.0582  166.6907 H   0  0  0  0  0  0  0  0  0  0  0  0
  126.3284  136.5249  167.9716 H   0  0  0  0  0  0  0  0  0  0  0  0
  124.6784  135.1163  166.8092 H   0  0  0  0  0  0  0  0  0  0  0  0
  124.4597  135.2386  164.3612 H   0  0  0  0  0  0  0  0  0  0  0  0
  125.2568  137.4284  162.3537 H   0  0  0  0  0  0  0  0  0  0  0  0
  125.8267  136.7330  160.1149 H   0  0  0  0  0  0  0  0  0  0  0  0
  127.1682  135.2548  158.6806 H   0  0  0  0  0  0  0  0  0  0  0  0
  127.2571  132.5597  158.6490 H   0  0  0  0  0  0  0  0  0  0  0  0
  128.5710  131.5925  156.7814 H   0  0  0  0  0  0  0  0  0  0  0  0
  129.0446  130.6119  158.1848 H   0  0  0  0  0  0  0  0  0  0  0  0
  132.2678  131.1341  157.0098 H   0  0  0  0  0  0  0  0  0  0  0  0
  130.8898  130.0207  157.1812 H   0  0  0  0  0  0  0  0  0  0  0  0
  131.1383  129.0890  154.9951 H   0  0  0  0  0  0  0  0  0  0  0  0
  130.3956  128.1573  152.7166 H   0  0  0  0  0  0  0  0  0  0  0  0
  129.9582  128.5304  150.3221 H   0  0  0  0  0  0  0  0  0  0  0  0
  129.9845  130.8077  149.3991 H   0  0  0  0  0  0  0  0  0  0  0  0
  130.4674  132.7349  150.8505 H   0  0  0  0  0  0  0  0  0  0  0  0
  129.5026  132.6505  154.8304 H   0  0  0  0  0  0  0  0  0  0  0  0
  131.0792  133.2649  155.3717 H   0  0  0  0  0  0  0  0  0  0  0  0
  130.8711  131.3555  159.5276 H   0  0  0  0  0  0  0  0  0  0  0  0
  132.1454  132.3652  158.7957 H   0  0  0  0  0  0  0  0  0  0  0  0
  130.8022  134.3620  159.0280 H   0  0  0  0  0  0  0  0  0  0  0  0
  130.7600  133.5244  160.5977 H   0  0  0  0  0  0  0  0  0  0  0  0
  128.9454  133.4994  162.1673 H   0  0  0  0  0  0  0  0  0  0  0  0
  127.6075  134.9892  163.5929 H   0  0  0  0  0  0  0  0  0  0  0  0
  1  2  1  0
  1 33  1  0
  1 34  1  0
  1 35  1  0
  2  7  2  0
  2  3  1  0
  3  4  2  0
  3 36  1  0
  4  5  1  0
  4 37  1  0
  5  6  2  0
  5 38  1  0
  6  7  1  0
  6 39  1  0
  7  8  1  0
  8  9  1  0
  8 40  1  0
  9 32  1  0
  9 10  2  0
 10 11  1  0
 10 41  1  0
 11 12  2  0
 11 42  1  0
 12 13  1  0
 12 31  1  0
 13 30  1  0
 13 14  2  0
 14 15  1  0
 14 43  1  0
 15 16  1  0
 15 44  1  0
 15 45  1  0
 16 17  1  6
 16 18  1  0
 16 29  1  0
 18 19  1  0
 18 46  1  0
 18 47  1  0
 19 28  1  0
 19 20  2  0
 20 21  1  0
 20 48  1  0
 21 26  2  0
 21 22  1  0
 22 23  2  0
 22 49  1  0
 23 24  1  0
 23 50  1  0
 24 25  2  0
 24 51  1  0
 25 26  1  0
 25 52  1  0
 26 27  1  0
 27 28  1  0
 28 53  1  0
 28 54  1  0
 29 30  1  0
 29 55  1  0
 29 56  1  0
 30 57  1  0
 30 58  1  0
 31 32  2  0
 31 59  1  0
 32 60  1  0
M  CHG  1  16   1
M  END
>  <DOCK_score>  (1) 
-41.395824

>  <SMILES>  (1) 
Cc1ccccc1Nc1ccc(C2=CC[N@H+](CC3=Cc4ccccc4OC3)CC2)cc1

$$$$
