C[C@@H](c1ccnn1C)C(Nc1[nH]cc(-c2ccc(N)cc2)[nH+]1)c1ccncc1
     RDKit          3D

 52 55  0  0  1  0  0  0  0  0999 V2000
  128.4378  137.0610  161.5137 C   0  0  0  0  0  0  0  0  0  0  0  0
  129.4397  136.7128  160.4108 C   0  0  1  0  0  0  0  0  0  0  0  0
  129.3129  137.4001  159.5745 H   0  0  0  0  0  0  0  0  0  0  0  0
  130.8418  136.8309  160.9502 C   0  0  0  0  0  0  0  0  0  0  0  0
  131.3594  136.1321  161.9870 C   0  0  0  0  0  0  0  0  0  0  0  0
  132.6861  136.5392  162.1607 C   0  0  0  0  0  0  0  0  0  0  0  0
  132.9532  137.4555  161.2656 N   0  0  0  0  0  0  0  0  0  0  0  0
  131.8044  137.6570  160.4896 N   0  0  0  0  0  0  0  0  0  0  0  0
  131.6714  138.5986  159.3752 C   0  0  0  0  0  0  0  0  0  0  0  0
  129.1957  135.2793  159.9344 C   0  0  2  0  0  0  0  0  0  0  0  0
  130.1548  134.9458  158.8785 N   0  0  0  0  0  0  0  0  0  0  0  0
  130.1277  133.6933  158.2892 C   0  0  0  0  0  0  0  0  0  0  0  0
  129.7372  132.5400  158.8965 N   0  0  0  0  0  0  0  0  0  0  0  0
  129.4305  132.4480  159.8120 H   0  0  0  0  0  0  0  0  0  0  0  0
  129.8544  131.5297  157.9713 C   0  0  0  0  0  0  0  0  0  0  0  0
  130.3213  132.0939  156.8302 C   0  0  0  0  0  0  0  0  0  0  0  0
  130.6083  131.3841  155.5595 C   0  0  0  0  0  0  0  0  0  0  0  0
  129.9302  131.7375  154.3940 C   0  0  0  0  0  0  0  0  0  0  0  0
  130.2027  131.0802  153.2128 C   0  0  0  0  0  0  0  0  0  0  0  0
  131.1441  130.0586  153.1860 C   0  0  0  0  0  0  0  0  0  0  0  0
  131.4139  129.3893  151.9899 N   0  0  0  0  0  0  0  0  0  0  0  0
  131.8176  129.7003  154.3482 C   0  0  0  0  0  0  0  0  0  0  0  0
  131.5524  130.3587  155.5304 C   0  0  0  0  0  0  0  0  0  0  0  0
  130.4793  133.4222  157.0559 N   0  0  0  0  0  0  0  0  0  0  0  0
  130.8013  134.0682  156.4080 H   0  0  0  0  0  0  0  0  0  0  0  0
  127.7934  135.1612  159.3949 C   0  0  0  0  0  0  0  0  0  0  0  0
  127.3781  135.9353  158.3223 C   0  0  0  0  0  0  0  0  0  0  0  0
  126.0859  135.7966  157.8520 C   0  0  0  0  0  0  0  0  0  0  0  0
  125.2499  134.9478  158.4173 N   0  0  0  0  0  0  0  0  0  0  0  0
  125.6089  134.1991  159.4417 C   0  0  0  0  0  0  0  0  0  0  0  0
  126.8864  134.2798  159.9630 C   0  0  0  0  0  0  0  0  0  0  0  0
  128.6117  138.0822  161.8530 H   0  0  0  0  0  0  0  0  0  0  0  0
  127.4238  136.9755  161.1236 H   0  0  0  0  0  0  0  0  0  0  0  0
  128.5647  136.3737  162.3500 H   0  0  0  0  0  0  0  0  0  0  0  0
  130.8404  135.3896  162.5748 H   0  0  0  0  0  0  0  0  0  0  0  0
  133.3709  136.1648  162.9072 H   0  0  0  0  0  0  0  0  0  0  0  0
  131.3254  139.5611  159.7520 H   0  0  0  0  0  0  0  0  0  0  0  0
  132.6387  138.7251  158.8890 H   0  0  0  0  0  0  0  0  0  0  0  0
  130.9511  138.2100  158.6552 H   0  0  0  0  0  0  0  0  0  0  0  0
  129.3224  134.5920  160.7708 H   0  0  0  0  0  0  0  0  0  0  0  0
  130.8089  135.6024  158.5923 H   0  0  0  0  0  0  0  0  0  0  0  0
  129.6237  130.4860  158.1256 H   0  0  0  0  0  0  0  0  0  0  0  0
  129.1948  132.5282  154.4152 H   0  0  0  0  0  0  0  0  0  0  0  0
  129.6807  131.3566  152.3086 H   0  0  0  0  0  0  0  0  0  0  0  0
  132.0710  128.6760  151.9705 H   0  0  0  0  0  0  0  0  0  0  0  0
  130.9442  129.6383  151.1784 H   0  0  0  0  0  0  0  0  0  0  0  0
  132.5488  128.9060  154.3253 H   0  0  0  0  0  0  0  0  0  0  0  0
  132.0760  130.0806  156.4332 H   0  0  0  0  0  0  0  0  0  0  0  0
  128.0568  136.6355  157.8581 H   0  0  0  0  0  0  0  0  0  0  0  0
  125.7556  136.3936  157.0148 H   0  0  0  0  0  0  0  0  0  0  0  0
  124.8965  133.5151  159.8786 H   0  0  0  0  0  0  0  0  0  0  0  0
  127.1745  133.6640  160.8022 H   0  0  0  0  0  0  0  0  0  0  0  0
  1  2  1  0
  1 32  1  0
  1 33  1  0
  1 34  1  0
  2  3  1  6
  2  4  1  0
  2 10  1  0
  4  8  1  0
  4  5  2  0
  5  6  1  0
  5 35  1  0
  6  7  2  0
  6 36  1  0
  7  8  1  0
  8  9  1  0
  9 37  1  0
  9 38  1  0
  9 39  1  0
 10 11  1  0
 10 26  1  0
 10 40  1  1
 11 41  1  0
 12 11  1  0
 12 24  2  0
 12 13  1  0
 13 14  1  0
 13 15  1  0
 15 16  2  0
 15 42  1  0
 16 17  1  0
 16 24  1  0
 17 23  1  0
 17 18  2  0
 18 19  1  0
 18 43  1  0
 19 20  2  0
 19 44  1  0
 20 21  1  0
 20 22  1  0
 21 45  1  0
 21 46  1  0
 22 23  2  0
 22 47  1  0
 23 48  1  0
 24 25  1  0
 26 31  1  0
 26 27  2  0
 27 28  1  0
 27 49  1  0
 28 29  2  0
 28 50  1  0
 29 30  1  0
 30 31  2  0
 30 51  1  0
 31 52  1  0
M  CHG  1  24   1
M  END
>  <DOCK_score>  (1) 
-57.071579

>  <SMILES>  (1) 
C[C@@H](c1ccnn1C)C(Nc1[nH]cc(-c2ccc(N)cc2)[nH+]1)c1ccncc1

$$$$
