CCc1ccc(-c2c[nH]c(N[C@H](C)Cc3ccc(F)cc3)[nH+]2)cc1
     RDKit          3D

 47 49  0  0  1  0  0  0  0  0999 V2000
  129.9758  128.6726  151.1203 C   0  0  0  0  0  0  0  0  0  0  0  0
  131.1551  129.5803  151.4752 C   0  0  0  0  0  0  0  0  0  0  0  0
  130.8553  130.3161  152.7558 C   0  0  0  0  0  0  0  0  0  0  0  0
  131.2163  129.7608  153.9697 C   0  0  0  0  0  0  0  0  0  0  0  0
  130.9494  130.4326  155.1454 C   0  0  0  0  0  0  0  0  0  0  0  0
  130.3046  131.6676  155.1083 C   0  0  0  0  0  0  0  0  0  0  0  0
  130.0101  132.3918  156.3689 C   0  0  0  0  0  0  0  0  0  0  0  0
  129.2456  131.9353  157.3917 C   0  0  0  0  0  0  0  0  0  0  0  0
  129.2375  132.9171  158.3524 N   0  0  0  0  0  0  0  0  0  0  0  0
  128.7749  132.8835  159.2043 H   0  0  0  0  0  0  0  0  0  0  0  0
  129.9981  133.9458  157.8883 C   0  0  0  0  0  0  0  0  0  0  0  0
  130.2451  135.1320  158.5578 N   0  0  0  0  0  0  0  0  0  0  0  0
  129.6657  135.3589  159.8841 C   0  0  2  0  0  0  0  0  0  0  0  0
  129.7146  134.4376  160.4644 H   0  0  0  0  0  0  0  0  0  0  0  0
  128.2055  135.7912  159.7355 C   0  0  0  0  0  0  0  0  0  0  0  0
  130.4520  136.4571  160.6030 C   0  0  0  0  0  0  0  0  0  0  0  0
  131.7147  135.8733  161.1826 C   0  0  0  0  0  0  0  0  0  0  0  0
  132.2638  136.4162  162.3293 C   0  0  0  0  0  0  0  0  0  0  0  0
  133.4186  135.8781  162.8648 C   0  0  0  0  0  0  0  0  0  0  0  0
  134.0322  134.8025  162.2461 C   0  0  0  0  0  0  0  0  0  0  0  0
  135.1646  134.2795  162.7647 F   0  0  0  0  0  0  0  0  0  0  0  0
  133.4845  134.2630  161.0942 C   0  0  0  0  0  0  0  0  0  0  0  0
  132.3262  134.7988  160.5639 C   0  0  0  0  0  0  0  0  0  0  0  0
  130.4628  133.6258  156.7052 N   0  0  0  0  0  0  0  0  0  0  0  0
  131.0366  134.1832  156.1567 H   0  0  0  0  0  0  0  0  0  0  0  0
  129.9380  132.2200  153.8823 C   0  0  0  0  0  0  0  0  0  0  0  0
  130.2150  131.5420  152.7126 C   0  0  0  0  0  0  0  0  0  0  0  0
  130.1926  128.1406  150.1940 H   0  0  0  0  0  0  0  0  0  0  0  0
  129.8170  127.9533  151.9238 H   0  0  0  0  0  0  0  0  0  0  0  0
  129.0779  129.2767  150.9908 H   0  0  0  0  0  0  0  0  0  0  0  0
  132.0529  128.9768  151.6042 H   0  0  0  0  0  0  0  0  0  0  0  0
  131.3137  130.3002  150.6712 H   0  0  0  0  0  0  0  0  0  0  0  0
  131.7116  128.8016  153.9976 H   0  0  0  0  0  0  0  0  0  0  0  0
  131.2359  130.0001  156.0927 H   0  0  0  0  0  0  0  0  0  0  0  0
  128.7396  130.9825  157.4412 H   0  0  0  0  0  0  0  0  0  0  0  0
  130.8020  135.8129  158.1488 H   0  0  0  0  0  0  0  0  0  0  0  0
  127.6453  135.0089  159.2234 H   0  0  0  0  0  0  0  0  0  0  0  0
  127.7745  135.9601  160.7222 H   0  0  0  0  0  0  0  0  0  0  0  0
  128.1567  136.7126  159.1551 H   0  0  0  0  0  0  0  0  0  0  0  0
  130.7076  137.2445  159.8941 H   0  0  0  0  0  0  0  0  0  0  0  0
  129.8430  136.8741  161.4052 H   0  0  0  0  0  0  0  0  0  0  0  0
  131.7878  137.2586  162.8090 H   0  0  0  0  0  0  0  0  0  0  0  0
  133.8451  136.2999  163.7629 H   0  0  0  0  0  0  0  0  0  0  0  0
  133.9624  133.4240  160.6102 H   0  0  0  0  0  0  0  0  0  0  0  0
  131.8988  134.3783  159.6657 H   0  0  0  0  0  0  0  0  0  0  0  0
  129.4380  133.1767  153.8477 H   0  0  0  0  0  0  0  0  0  0  0  0
  129.9312  131.9689  151.7620 H   0  0  0  0  0  0  0  0  0  0  0  0
  1  2  1  0
  1 28  1  0
  1 29  1  0
  1 30  1  0
  2  3  1  0
  2 31  1  0
  2 32  1  0
  3 27  2  0
  3  4  1  0
  4  5  2  0
  4 33  1  0
  5  6  1  0
  5 34  1  0
  6  7  1  0
  6 26  2  0
  7 24  1  0
  7  8  2  0
  8  9  1  0
  8 35  1  0
  9 10  1  0
  9 11  1  0
 11 12  1  0
 11 24  2  0
 12 13  1  0
 12 36  1  0
 13 14  1  1
 13 15  1  0
 13 16  1  0
 15 37  1  0
 15 38  1  0
 15 39  1  0
 16 17  1  0
 16 40  1  0
 16 41  1  0
 17 23  1  0
 17 18  2  0
 18 19  1  0
 18 42  1  0
 19 20  2  0
 19 43  1  0
 20 21  1  0
 20 22  1  0
 22 23  2  0
 22 44  1  0
 23 45  1  0
 24 25  1  0
 26 27  1  0
 26 46  1  0
 27 47  1  0
M  CHG  1  24   1
M  END
>  <DOCK_score>  (1) 
-56.182449

>  <SMILES>  (1) 
CCc1ccc(-c2c[nH]c(N[C@H](C)Cc3ccc(F)cc3)[nH+]2)cc1

$$$$
