C=CCC[C@H](C)c1cccc(Nc2ccc(CNC3=[NH+]CCN3CC)cc2)c1
     RDKit          3D

 61 63  0  0  1  0  0  0  0  0999 V2000
  130.7194  141.8377  163.7269 C   0  0  0  0  0  0  0  0  0  0  0  0
  129.6574  141.9207  164.4894 C   0  0  0  0  0  0  0  0  0  0  0  0
  128.6279  140.8204  164.4696 C   0  0  0  0  0  0  0  0  0  0  0  0
  128.5005  140.2160  165.8694 C   0  0  0  0  0  0  0  0  0  0  0  0
  127.4554  139.0989  165.8494 C   0  0  2  0  0  0  0  0  0  0  0  0
  126.4930  139.5072  165.5412 H   0  0  0  0  0  0  0  0  0  0  0  0
  127.3281  138.4944  167.2493 C   0  0  0  0  0  0  0  0  0  0  0  0
  127.8819  138.0292  164.8773 C   0  0  0  0  0  0  0  0  0  0  0  0
  129.0797  137.3634  165.0645 C   0  0  0  0  0  0  0  0  0  0  0  0
  129.4749  136.3814  164.1751 C   0  0  0  0  0  0  0  0  0  0  0  0
  128.6743  136.0622  163.0959 C   0  0  0  0  0  0  0  0  0  0  0  0
  127.4707  136.7288  162.9048 C   0  0  0  0  0  0  0  0  0  0  0  0
  126.6590  136.4090  161.8139 N   0  0  0  0  0  0  0  0  0  0  0  0
  127.2331  135.9458  160.6274 C   0  0  0  0  0  0  0  0  0  0  0  0
  126.8954  134.6919  160.1336 C   0  0  0  0  0  0  0  0  0  0  0  0
  127.4645  134.2374  158.9602 C   0  0  0  0  0  0  0  0  0  0  0  0
  128.3696  135.0289  158.2771 C   0  0  0  0  0  0  0  0  0  0  0  0
  128.9887  134.5296  156.9970 C   0  0  0  0  0  0  0  0  0  0  0  0
  129.4150  133.1388  157.1707 N   0  0  0  0  0  0  0  0  0  0  0  0
  130.0114  132.4675  156.1296 C   0  0  0  0  0  0  0  0  0  0  0  0
  130.2179  133.0075  154.9729 N   0  0  0  0  0  0  0  0  0  0  0  0
  129.9780  133.9163  154.7331 H   0  0  0  0  0  0  0  0  0  0  0  0
  130.8715  132.0446  154.0758 C   0  0  0  0  0  0  0  0  0  0  0  0
  131.0180  130.7734  154.9357 C   0  0  0  0  0  0  0  0  0  0  0  0
  130.4317  131.1695  156.2270 N   0  0  0  0  0  0  0  0  0  0  0  0
  130.3178  130.3182  157.4139 C   0  0  0  0  0  0  0  0  0  0  0  0
  131.5721  130.4744  158.2760 C   0  0  0  0  0  0  0  0  0  0  0  0
  128.7122  136.2753  158.7687 C   0  0  0  0  0  0  0  0  0  0  0  0
  128.1425  136.7383  159.9384 C   0  0  0  0  0  0  0  0  0  0  0  0
  127.0790  137.7186  163.7979 C   0  0  0  0  0  0  0  0  0  0  0  0
  130.8572  140.9807  163.0842 H   0  0  0  0  0  0  0  0  0  0  0  0
  131.4572  142.6263  163.7409 H   0  0  0  0  0  0  0  0  0  0  0  0
  129.5196  142.7777  165.1320 H   0  0  0  0  0  0  0  0  0  0  0  0
  128.9363  140.0467  163.7666 H   0  0  0  0  0  0  0  0  0  0  0  0
  127.6655  141.2287  164.1613 H   0  0  0  0  0  0  0  0  0  0  0  0
  128.1921  140.9897  166.5726 H   0  0  0  0  0  0  0  0  0  0  0  0
  129.4630  139.8077  166.1779 H   0  0  0  0  0  0  0  0  0  0  0  0
  128.2904  138.0861  167.5576 H   0  0  0  0  0  0  0  0  0  0  0  0
  127.0195  139.2681  167.9523 H   0  0  0  0  0  0  0  0  0  0  0  0
  126.5833  137.6986  167.2350 H   0  0  0  0  0  0  0  0  0  0  0  0
  129.7076  137.6111  165.9077 H   0  0  0  0  0  0  0  0  0  0  0  0
  130.4107  135.8635  164.3242 H   0  0  0  0  0  0  0  0  0  0  0  0
  128.9839  135.2955  162.4010 H   0  0  0  0  0  0  0  0  0  0  0  0
  125.6960  136.5081  161.8802 H   0  0  0  0  0  0  0  0  0  0  0  0
  126.1883  134.0732  160.6665 H   0  0  0  0  0  0  0  0  0  0  0  0
  127.2029  133.2626  158.5760 H   0  0  0  0  0  0  0  0  0  0  0  0
  129.8523  135.1458  156.7468 H   0  0  0  0  0  0  0  0  0  0  0  0
  128.2558  134.5871  156.1923 H   0  0  0  0  0  0  0  0  0  0  0  0
  129.2765  132.6915  158.0203 H   0  0  0  0  0  0  0  0  0  0  0  0
  131.8501  132.4105  153.7650 H   0  0  0  0  0  0  0  0  0  0  0  0
  130.2446  131.8476  153.2063 H   0  0  0  0  0  0  0  0  0  0  0  0
  132.0686  130.5090  155.0554 H   0  0  0  0  0  0  0  0  0  0  0  0
  130.4615  129.9443  154.4988 H   0  0  0  0  0  0  0  0  0  0  0  0
  129.4414  130.6141  157.9905 H   0  0  0  0  0  0  0  0  0  0  0  0
  130.2157  129.2775  157.1060 H   0  0  0  0  0  0  0  0  0  0  0  0
  131.4873  129.8411  159.1589 H   0  0  0  0  0  0  0  0  0  0  0  0
  132.4484  130.1786  157.6993 H   0  0  0  0  0  0  0  0  0  0  0  0
  131.6739  131.5151  158.5837 H   0  0  0  0  0  0  0  0  0  0  0  0
  129.4229  136.8889  158.2353 H   0  0  0  0  0  0  0  0  0  0  0  0
  128.4070  137.7136  160.3195 H   0  0  0  0  0  0  0  0  0  0  0  0
  126.1459  138.2418  163.6498 H   0  0  0  0  0  0  0  0  0  0  0  0
  1  2  2  0
  1 31  1  0
  1 32  1  0
  2  3  1  0
  2 33  1  0
  3  4  1  0
  3 34  1  0
  3 35  1  0
  4  5  1  0
  4 36  1  0
  4 37  1  0
  5  6  1  6
  5  7  1  0
  5  8  1  0
  7 38  1  0
  7 39  1  0
  7 40  1  0
  8 30  2  0
  8  9  1  0
  9 10  2  0
  9 41  1  0
 10 11  1  0
 10 42  1  0
 11 12  2  0
 11 43  1  0
 12 13  1  0
 12 30  1  0
 13 14  1  0
 13 44  1  0
 14 29  1  0
 14 15  2  0
 15 16  1  0
 15 45  1  0
 16 17  2  0
 16 46  1  0
 17 18  1  0
 17 28  1  0
 18 19  1  0
 18 47  1  0
 18 48  1  0
 19 49  1  0
 20 19  1  0
 20 25  1  0
 20 21  2  0
 21 22  1  0
 21 23  1  0
 23 24  1  0
 23 50  1  0
 23 51  1  0
 24 25  1  0
 24 52  1  0
 24 53  1  0
 25 26  1  0
 26 27  1  0
 26 54  1  0
 26 55  1  0
 27 56  1  0
 27 57  1  0
 27 58  1  0
 28 29  2  0
 28 59  1  0
 29 60  1  0
 30 61  1  0
M  CHG  1  21   1
M  END
>  <DOCK_score>  (1) 
-43.48476

>  <SMILES>  (1) 
C=CCC[C@H](C)c1cccc(Nc2ccc(CNC3=[NH+]CCN3CC)cc2)c1

$$$$
