CC(C)(Nc1cc(N)ccc1C1=CCN[NH2+]C1)c1ccc(-c2ccc(O)cc2)cc1
     RDKit          3D

 59 62  0  0  0  0  0  0  0  0999 V2000
  130.9885  133.5465  161.1656 C   0  0  0  0  0  0  0  0  0  0  0  0
  131.5823  134.7966  160.5132 C   0  0  0  0  0  0  0  0  0  0  0  0
  132.9511  134.4602  159.9180 C   0  0  0  0  0  0  0  0  0  0  0  0
  130.6890  135.2638  159.4502 N   0  0  0  0  0  0  0  0  0  0  0  0
  129.3079  135.2346  159.6373 C   0  0  0  0  0  0  0  0  0  0  0  0
  128.7315  135.9520  160.6734 C   0  0  0  0  0  0  0  0  0  0  0  0
  127.3564  135.9161  160.8612 C   0  0  0  0  0  0  0  0  0  0  0  0
  126.7788  136.6341  161.9089 N   0  0  0  0  0  0  0  0  0  0  0  0
  126.5521  135.1660  160.0084 C   0  0  0  0  0  0  0  0  0  0  0  0
  127.1152  134.4540  158.9719 C   0  0  0  0  0  0  0  0  0  0  0  0
  128.4966  134.4834  158.7744 C   0  0  0  0  0  0  0  0  0  0  0  0
  129.1023  133.7213  157.6646 C   0  0  0  0  0  0  0  0  0  0  0  0
  129.4761  132.4757  157.8780 C   0  0  0  0  0  0  0  0  0  0  0  0
  130.1059  131.6339  156.8024 C   0  0  0  0  0  0  0  0  0  0  0  0
  129.8659  132.2482  155.4894 N   0  0  0  0  0  0  0  0  0  0  0  0
  130.2427  133.6547  155.5147 N   0  0  0  0  0  0  0  0  0  0  0  0
  131.1632  133.7508  155.9165 H   0  0  0  0  0  0  0  0  0  0  0  0
  130.2446  134.0210  154.5745 H   0  0  0  0  0  0  0  0  0  0  0  0
  129.2704  134.3931  156.3305 C   0  0  0  0  0  0  0  0  0  0  0  0
  131.7377  135.8788  161.5504 C   0  0  0  0  0  0  0  0  0  0  0  0
  131.3589  135.6387  162.8589 C   0  0  0  0  0  0  0  0  0  0  0  0
  131.5035  136.6246  163.8138 C   0  0  0  0  0  0  0  0  0  0  0  0
  132.0224  137.8673  163.4555 C   0  0  0  0  0  0  0  0  0  0  0  0
  132.1746  138.9331  164.4763 C   0  0  0  0  0  0  0  0  0  0  0  0
  133.1939  139.8758  164.3550 C   0  0  0  0  0  0  0  0  0  0  0  0
  133.3304  140.8677  165.3034 C   0  0  0  0  0  0  0  0  0  0  0  0
  132.4594  140.9222  166.3830 C   0  0  0  0  0  0  0  0  0  0  0  0
  132.5991  141.8978  167.3185 O   0  0  0  0  0  0  0  0  0  0  0  0
  131.4460  139.9818  166.5092 C   0  0  0  0  0  0  0  0  0  0  0  0
  131.3018  138.9902  165.5617 C   0  0  0  0  0  0  0  0  0  0  0  0
  132.3975  138.1054  162.1347 C   0  0  0  0  0  0  0  0  0  0  0  0
  132.2534  137.1105  161.1891 C   0  0  0  0  0  0  0  0  0  0  0  0
  130.9501  132.7387  160.4347 H   0  0  0  0  0  0  0  0  0  0  0  0
  131.6118  133.2452  162.0076 H   0  0  0  0  0  0  0  0  0  0  0  0
  129.9809  133.7649  161.5192 H   0  0  0  0  0  0  0  0  0  0  0  0
  133.3395  135.3289  159.3865 H   0  0  0  0  0  0  0  0  0  0  0  0
  133.6382  134.1869  160.7188 H   0  0  0  0  0  0  0  0  0  0  0  0
  132.8504  133.6251  159.2247 H   0  0  0  0  0  0  0  0  0  0  0  0
  131.0585  135.5934  158.6161 H   0  0  0  0  0  0  0  0  0  0  0  0
  129.3522  136.5355  161.3370 H   0  0  0  0  0  0  0  0  0  0  0  0
  125.8182  136.6100  162.0417 H   0  0  0  0  0  0  0  0  0  0  0  0
  127.3378  137.1575  162.5042 H   0  0  0  0  0  0  0  0  0  0  0  0
  125.4831  135.1416  160.1598 H   0  0  0  0  0  0  0  0  0  0  0  0
  126.4877  133.8734  158.3121 H   0  0  0  0  0  0  0  0  0  0  0  0
  129.3256  132.0460  158.8573 H   0  0  0  0  0  0  0  0  0  0  0  0
  129.6691  130.6354  156.8209 H   0  0  0  0  0  0  0  0  0  0  0  0
  131.1792  131.5634  156.9790 H   0  0  0  0  0  0  0  0  0  0  0  0
  128.9031  132.1367  155.2087 H   0  0  0  0  0  0  0  0  0  0  0  0
  129.6248  135.4128  156.4812 H   0  0  0  0  0  0  0  0  0  0  0  0
  128.3098  134.4165  155.8157 H   0  0  0  0  0  0  0  0  0  0  0  0
  130.9530  134.6766  163.1346 H   0  0  0  0  0  0  0  0  0  0  0  0
  131.2113  136.4347  164.8361 H   0  0  0  0  0  0  0  0  0  0  0  0
  133.8744  139.8315  163.5175 H   0  0  0  0  0  0  0  0  0  0  0  0
  134.1183  141.6003  165.2083 H   0  0  0  0  0  0  0  0  0  0  0  0
  133.3316  142.5055  167.1466 H   0  0  0  0  0  0  0  0  0  0  0  0
  130.7701  140.0264  167.3503 H   0  0  0  0  0  0  0  0  0  0  0  0
  130.5138  138.2583  165.6605 H   0  0  0  0  0  0  0  0  0  0  0  0
  132.8005  139.0666  161.8515 H   0  0  0  0  0  0  0  0  0  0  0  0
  132.5434  137.2940  160.1651 H   0  0  0  0  0  0  0  0  0  0  0  0
  1  2  1  0
  1 33  1  0
  1 34  1  0
  1 35  1  0
  2  3  1  0
  2  4  1  0
  2 20  1  0
  3 36  1  0
  3 37  1  0
  3 38  1  0
  4  5  1  0
  4 39  1  0
  5 11  1  0
  5  6  2  0
  6  7  1  0
  6 40  1  0
  7  8  1  0
  7  9  2  0
  8 41  1  0
  8 42  1  0
  9 10  1  0
  9 43  1  0
 10 11  2  0
 10 44  1  0
 11 12  1  0
 12 19  1  0
 12 13  2  0
 13 14  1  0
 13 45  1  0
 14 15  1  0
 14 46  1  0
 14 47  1  0
 15 16  1  0
 15 48  1  0
 16 17  1  0
 16 18  1  0
 16 19  1  0
 19 49  1  0
 19 50  1  0
 20 32  1  0
 20 21  2  0
 21 22  1  0
 21 51  1  0
 22 23  2  0
 22 52  1  0
 23 24  1  0
 23 31  1  0
 24 30  1  0
 24 25  2  0
 25 26  1  0
 25 53  1  0
 26 27  2  0
 26 54  1  0
 27 28  1  0
 27 29  1  0
 28 55  1  0
 29 30  2  0
 29 56  1  0
 30 57  1  0
 31 32  2  0
 31 58  1  0
 32 59  1  0
M  CHG  1  16   1
M  END
>  <DOCK_score>  (1) 
-45.602921

>  <SMILES>  (1) 
CC(C)(Nc1cc(N)ccc1C1=CCN[NH2+]C1)c1ccc(-c2ccc(O)cc2)cc1

$$$$
