O=C(OCCC1CCCCC1)c1c[nH]nc1[C@H]1CCC[NH2+]C1
     RDKit          3D

 50 52  0  0  1  0  0  0  0  0999 V2000
  129.6497  138.2461  162.2696 O   0  0  0  0  0  0  0  0  0  0  0  0
  129.6965  137.4264  161.3735 C   0  0  0  0  0  0  0  0  0  0  0  0
  130.8650  137.1736  160.7521 O   0  0  0  0  0  0  0  0  0  0  0  0
  132.0270  137.9174  161.2049 C   0  0  0  0  0  0  0  0  0  0  0  0
  132.9977  138.1072  160.0376 C   0  0  0  0  0  0  0  0  0  0  0  0
  134.2221  138.8909  160.5149 C   0  0  0  0  0  0  0  0  0  0  0  0
  133.7798  140.2589  161.0380 C   0  0  0  0  0  0  0  0  0  0  0  0
  135.0041  141.0427  161.5152 C   0  0  0  0  0  0  0  0  0  0  0  0
  135.9749  141.2325  160.3479 C   0  0  0  0  0  0  0  0  0  0  0  0
  136.4172  139.8644  159.8247 C   0  0  0  0  0  0  0  0  0  0  0  0
  135.1928  139.0807  159.3475 C   0  0  0  0  0  0  0  0  0  0  0  0
  128.4759  136.7093  160.9670 C   0  0  0  0  0  0  0  0  0  0  0  0
  127.2158  136.8606  161.5121 C   0  0  0  0  0  0  0  0  0  0  0  0
  126.3914  136.0303  160.8544 N   0  0  0  0  0  0  0  0  0  0  0  0
  125.4417  135.9252  161.0210 H   0  0  0  0  0  0  0  0  0  0  0  0
  127.1329  135.3412  159.8881 N   0  0  0  0  0  0  0  0  0  0  0  0
  128.3751  135.7346  159.9484 C   0  0  0  0  0  0  0  0  0  0  0  0
  129.5034  135.2411  159.0800 C   0  0  1  0  0  0  0  0  0  0  0  0
  130.2359  136.0374  158.9477 H   0  0  0  0  0  0  0  0  0  0  0  0
  130.1729  134.0361  159.7472 C   0  0  0  0  0  0  0  0  0  0  0  0
  131.2660  133.4945  158.8215 C   0  0  0  0  0  0  0  0  0  0  0  0
  130.6493  133.1387  157.4669 C   0  0  0  0  0  0  0  0  0  0  0  0
  130.0490  134.3372  156.8687 N   0  0  0  0  0  0  0  0  0  0  0  0
  130.7507  135.0576  156.7850 H   0  0  0  0  0  0  0  0  0  0  0  0
  129.6898  134.1110  155.9533 H   0  0  0  0  0  0  0  0  0  0  0  0
  128.9523  134.8217  157.7154 C   0  0  0  0  0  0  0  0  0  0  0  0
  131.7119  138.8920  161.5777 H   0  0  0  0  0  0  0  0  0  0  0  0
  132.5228  137.3657  162.0037 H   0  0  0  0  0  0  0  0  0  0  0  0
  133.3128  137.1325  159.6649 H   0  0  0  0  0  0  0  0  0  0  0  0
  132.5020  138.6588  159.2388 H   0  0  0  0  0  0  0  0  0  0  0  0
  134.7178  138.3393  161.3136 H   0  0  0  0  0  0  0  0  0  0  0  0
  133.2841  140.8105  160.2391 H   0  0  0  0  0  0  0  0  0  0  0  0
  133.0883  140.1236  161.8696 H   0  0  0  0  0  0  0  0  0  0  0  0
  135.4999  140.4911  162.3140 H   0  0  0  0  0  0  0  0  0  0  0  0
  134.6891  142.0172  161.8879 H   0  0  0  0  0  0  0  0  0  0  0  0
  136.8471  141.7908  160.6878 H   0  0  0  0  0  0  0  0  0  0  0  0
  135.4791  141.7840  159.5491 H   0  0  0  0  0  0  0  0  0  0  0  0
  136.9129  139.3129  160.6236 H   0  0  0  0  0  0  0  0  0  0  0  0
  137.1087  139.9996  158.9931 H   0  0  0  0  0  0  0  0  0  0  0  0
  135.5080  138.1061  158.9748 H   0  0  0  0  0  0  0  0  0  0  0  0
  134.6971  139.6323  158.5487 H   0  0  0  0  0  0  0  0  0  0  0  0
  126.9430  137.5278  162.3164 H   0  0  0  0  0  0  0  0  0  0  0  0
  130.6167  134.3438  160.6941 H   0  0  0  0  0  0  0  0  0  0  0  0
  129.4296  133.2595  159.9271 H   0  0  0  0  0  0  0  0  0  0  0  0
  132.0351  134.2541  158.6830 H   0  0  0  0  0  0  0  0  0  0  0  0
  131.7101  132.6034  159.2652 H   0  0  0  0  0  0  0  0  0  0  0  0
  131.4249  132.7525  156.8054 H   0  0  0  0  0  0  0  0  0  0  0  0
  129.8802  132.3792  157.6065 H   0  0  0  0  0  0  0  0  0  0  0  0
  128.2193  134.0262  157.8491 H   0  0  0  0  0  0  0  0  0  0  0  0
  128.4754  135.6777  157.2381 H   0  0  0  0  0  0  0  0  0  0  0  0
  1  2  2  0
  2  3  1  0
  2 12  1  0
  3  4  1  0
  4  5  1  0
  4 27  1  0
  4 28  1  0
  5  6  1  0
  5 29  1  0
  5 30  1  0
  6 11  1  0
  6  7  1  0
  6 31  1  0
  7  8  1  0
  7 32  1  0
  7 33  1  0
  8  9  1  0
  8 34  1  0
  8 35  1  0
  9 10  1  0
  9 36  1  0
  9 37  1  0
 10 11  1  0
 10 38  1  0
 10 39  1  0
 11 40  1  0
 11 41  1  0
 12 17  1  0
 12 13  2  0
 13 14  1  0
 13 42  1  0
 14 15  1  0
 14 16  1  0
 16 17  2  0
 17 18  1  0
 18 19  1  6
 18 26  1  0
 18 20  1  0
 20 21  1  0
 20 43  1  0
 20 44  1  0
 21 22  1  0
 21 45  1  0
 21 46  1  0
 22 23  1  0
 22 47  1  0
 22 48  1  0
 23 24  1  0
 23 25  1  0
 23 26  1  0
 26 49  1  0
 26 50  1  0
M  CHG  1  23   1
M  END
>  <DOCK_score>  (1) 
-40.967693

>  <SMILES>  (1) 
O=C(OCCC1CCCCC1)c1c[nH]nc1[C@H]1CCC[NH2+]C1

$$$$
