C#CC[C@H](Cc1ccccc1)NC(NC1CCC(=O)NC1)=[NH+]C1COc2cc(Cl)ccc2C1
     RDKit          3D

 63 66  0  0  1  0  0  0  0  0999 V2000
  126.3105  135.1591  158.9128 C   0  0  0  0  0  0  0  0  0  0  0  0
  127.4587  135.1647  158.6681 C   0  0  0  0  0  0  0  0  0  0  0  0
  128.8984  135.1718  158.3612 C   0  0  0  0  0  0  0  0  0  0  0  0
  129.6573  134.4218  159.4578 C   0  0  2  0  0  0  0  0  0  0  0  0
  130.7233  134.4270  159.2306 H   0  0  0  0  0  0  0  0  0  0  0  0
  129.1576  132.9774  159.5272 C   0  0  0  0  0  0  0  0  0  0  0  0
  129.8065  132.1684  158.4338 C   0  0  0  0  0  0  0  0  0  0  0  0
  129.2006  132.0687  157.1952 C   0  0  0  0  0  0  0  0  0  0  0  0
  129.7982  131.3308  156.1907 C   0  0  0  0  0  0  0  0  0  0  0  0
  130.9965  130.6836  156.4280 C   0  0  0  0  0  0  0  0  0  0  0  0
  131.5998  130.7789  157.6681 C   0  0  0  0  0  0  0  0  0  0  0  0
  131.0048  131.5212  158.6709 C   0  0  0  0  0  0  0  0  0  0  0  0
  129.4294  135.0797  160.7468 N   0  0  0  0  0  0  0  0  0  0  0  0
  130.2737  136.0803  161.1665 C   0  0  0  0  0  0  0  0  0  0  0  0
  130.0597  136.6978  162.3762 N   0  0  0  0  0  0  0  0  0  0  0  0
  128.9322  136.2894  163.2178 C   0  0  1  0  0  0  0  0  0  0  0  0
  129.2810  136.5210  164.6930 C   0  0  0  0  0  0  0  0  0  0  0  0
  128.1668  135.9202  165.5536 C   0  0  0  0  0  0  0  0  0  0  0  0
  126.8284  136.3794  165.0503 C   0  0  0  0  0  0  0  0  0  0  0  0
  125.8709  136.2731  165.7869 O   0  0  0  0  0  0  0  0  0  0  0  0
  126.6367  136.8980  163.8367 N   0  0  0  0  0  0  0  0  0  0  0  0
  127.7004  137.1242  162.8654 C   0  0  0  0  0  0  0  0  0  0  0  0
  131.2769  136.4435  160.4179 N   0  0  0  0  0  0  0  0  0  0  0  0
  131.2135  136.3695  159.4527 H   0  0  0  0  0  0  0  0  0  0  0  0
  132.5001  136.9636  161.0339 C   0  0  2  0  0  0  0  0  0  0  0  0
  133.5303  137.2893  159.9447 C   0  0  0  0  0  0  0  0  0  0  0  0
  134.6675  137.8899  160.5661 O   0  0  0  0  0  0  0  0  0  0  0  0
  135.1991  137.2699  161.6517 C   0  0  0  0  0  0  0  0  0  0  0  0
  136.4865  137.6164  162.0495 C   0  0  0  0  0  0  0  0  0  0  0  0
  137.0599  137.0114  163.1503 C   0  0  0  0  0  0  0  0  0  0  0  0
  138.6669  137.4466  163.6422 Cl  0  0  0  0  0  0  0  0  0  0  0  0
  136.3526  136.0571  163.8606 C   0  0  0  0  0  0  0  0  0  0  0  0
  135.0752  135.7104  163.4668 C   0  0  0  0  0  0  0  0  0  0  0  0
  134.4955  136.3143  162.3625 C   0  0  0  0  0  0  0  0  0  0  0  0
  133.1007  135.9048  161.9620 C   0  0  0  0  0  0  0  0  0  0  0  0
  125.2835  135.1540  159.1318 H   0  0  0  0  0  0  0  0  0  0  0  0
  129.2542  136.2008  158.3119 H   0  0  0  0  0  0  0  0  0  0  0  0
  129.0678  134.6823  157.4023 H   0  0  0  0  0  0  0  0  0  0  0  0
  129.4146  132.5501  160.4965 H   0  0  0  0  0  0  0  0  0  0  0  0
  128.0755  132.9605  159.3981 H   0  0  0  0  0  0  0  0  0  0  0  0
  128.2622  132.5708  157.0112 H   0  0  0  0  0  0  0  0  0  0  0  0
  129.3268  131.2560  155.2220 H   0  0  0  0  0  0  0  0  0  0  0  0
  131.4613  130.1033  155.6446 H   0  0  0  0  0  0  0  0  0  0  0  0
  132.5358  130.2731  157.8536 H   0  0  0  0  0  0  0  0  0  0  0  0
  131.4760  131.5954  159.6400 H   0  0  0  0  0  0  0  0  0  0  0  0
  128.6829  134.8094  161.3041 H   0  0  0  0  0  0  0  0  0  0  0  0
  130.6555  137.4035  162.6725 H   0  0  0  0  0  0  0  0  0  0  0  0
  128.7173  135.2334  163.0541 H   0  0  0  0  0  0  0  0  0  0  0  0
  130.2281  136.0347  164.9268 H   0  0  0  0  0  0  0  0  0  0  0  0
  129.3590  137.5906  164.8880 H   0  0  0  0  0  0  0  0  0  0  0  0
  128.2182  134.8325  165.5049 H   0  0  0  0  0  0  0  0  0  0  0  0
  128.2936  136.2428  166.5870 H   0  0  0  0  0  0  0  0  0  0  0  0
  125.7318  137.1379  163.5827 H   0  0  0  0  0  0  0  0  0  0  0  0
  127.9686  138.1808  162.8675 H   0  0  0  0  0  0  0  0  0  0  0  0
  127.3495  136.8468  161.8714 H   0  0  0  0  0  0  0  0  0  0  0  0
  132.2704  137.8640  161.6036 H   0  0  0  0  0  0  0  0  0  0  0  0
  133.8305  136.3725  159.4373 H   0  0  0  0  0  0  0  0  0  0  0  0
  133.0963  137.9830  159.2246 H   0  0  0  0  0  0  0  0  0  0  0  0
  137.0390  138.3609  161.4955 H   0  0  0  0  0  0  0  0  0  0  0  0
  136.7993  135.5837  164.7224 H   0  0  0  0  0  0  0  0  0  0  0  0
  134.5251  134.9657  164.0227 H   0  0  0  0  0  0  0  0  0  0  0  0
  132.4806  135.8101  162.8534 H   0  0  0  0  0  0  0  0  0  0  0  0
  133.1388  134.9471  161.4431 H   0  0  0  0  0  0  0  0  0  0  0  0
  1  2  3  0
  1 36  1  0
  2  3  1  0
  3  4  1  0
  3 37  1  0
  3 38  1  0
  4  5  1  6
  4  6  1  0
  4 13  1  0
  6  7  1  0
  6 39  1  0
  6 40  1  0
  7 12  1  0
  7  8  2  0
  8  9  1  0
  8 41  1  0
  9 10  2  0
  9 42  1  0
 10 11  1  0
 10 43  1  0
 11 12  2  0
 11 44  1  0
 12 45  1  0
 13 46  1  0
 14 13  1  0
 14 15  1  0
 14 23  2  0
 15 16  1  0
 15 47  1  0
 16 22  1  0
 16 17  1  0
 16 48  1  1
 17 18  1  0
 17 49  1  0
 17 50  1  0
 18 19  1  0
 18 51  1  0
 18 52  1  0
 19 20  2  0
 19 21  1  0
 21 22  1  0
 21 53  1  0
 22 54  1  0
 22 55  1  0
 23 24  1  0
 23 25  1  0
 25 35  1  0
 25 26  1  0
 25 56  1  1
 26 27  1  0
 26 57  1  0
 26 58  1  0
 27 28  1  0
 28 34  2  0
 28 29  1  0
 29 30  2  0
 29 59  1  0
 30 31  1  0
 30 32  1  0
 32 33  2  0
 32 60  1  0
 33 34  1  0
 33 61  1  0
 34 35  1  0
 35 62  1  0
 35 63  1  0
M  CHG  1  23   1
M  END
>  <DOCK_score>  (1) 
-47.309361

>  <SMILES>  (1) 
C#CC[C@H](Cc1ccccc1)NC(NC1CCC(=O)NC1)=[NH+]C1COc2cc(Cl)ccc2C1

$$$$
