C[C@@H](Cc1ccc(-c2ccccc2)cc1)Nc1[nH]cc(-c2ccc(Br)cc2)[nH+]1
     RDKit          3D

 51 54  0  0  1  0  0  0  0  0999 V2000
  130.3935  135.2085  161.8729 C   0  0  0  0  0  0  0  0  0  0  0  0
  129.4210  135.6322  160.7704 C   0  0  1  0  0  0  0  0  0  0  0  0
  128.5150  135.0295  160.8336 H   0  0  0  0  0  0  0  0  0  0  0  0
  129.0638  137.1095  160.9453 C   0  0  0  0  0  0  0  0  0  0  0  0
  130.3162  137.9430  160.8580 C   0  0  0  0  0  0  0  0  0  0  0  0
  130.7372  138.4278  159.6329 C   0  0  0  0  0  0  0  0  0  0  0  0
  131.8809  139.1958  159.5479 C   0  0  0  0  0  0  0  0  0  0  0  0
  132.6176  139.4735  160.6975 C   0  0  0  0  0  0  0  0  0  0  0  0
  133.8514  140.2936  160.6113 C   0  0  0  0  0  0  0  0  0  0  0  0
  134.2384  141.0895  161.6874 C   0  0  0  0  0  0  0  0  0  0  0  0
  135.3895  141.8466  161.6037 C   0  0  0  0  0  0  0  0  0  0  0  0
  136.1527  141.8240  160.4512 C   0  0  0  0  0  0  0  0  0  0  0  0
  135.7701  141.0398  159.3770 C   0  0  0  0  0  0  0  0  0  0  0  0
  134.6239  140.2748  159.4518 C   0  0  0  0  0  0  0  0  0  0  0  0
  132.1918  138.9782  161.9283 C   0  0  0  0  0  0  0  0  0  0  0  0
  131.0438  138.2157  162.0025 C   0  0  0  0  0  0  0  0  0  0  0  0
  130.0493  135.4334  159.4619 N   0  0  0  0  0  0  0  0  0  0  0  0
  129.9073  134.2245  158.8024 C   0  0  0  0  0  0  0  0  0  0  0  0
  129.2127  133.1479  159.2612 N   0  0  0  0  0  0  0  0  0  0  0  0
  128.7325  133.0899  160.1020 H   0  0  0  0  0  0  0  0  0  0  0  0
  129.3176  132.1583  158.3140 C   0  0  0  0  0  0  0  0  0  0  0  0
  130.0677  132.6603  157.3020 C   0  0  0  0  0  0  0  0  0  0  0  0
  130.4401  131.9483  156.0551 C   0  0  0  0  0  0  0  0  0  0  0  0
  130.6347  132.6619  154.8738 C   0  0  0  0  0  0  0  0  0  0  0  0
  130.9851  131.9951  153.7176 C   0  0  0  0  0  0  0  0  0  0  0  0
  131.1340  130.6190  153.7275 C   0  0  0  0  0  0  0  0  0  0  0  0
  131.6081  129.7112  152.1378 Br  0  0  0  0  0  0  0  0  0  0  0  0
  130.9373  129.9050  154.8970 C   0  0  0  0  0  0  0  0  0  0  0  0
  130.5912  130.5627  156.0596 C   0  0  0  0  0  0  0  0  0  0  0  0
  130.4197  133.9281  157.6329 N   0  0  0  0  0  0  0  0  0  0  0  0
  130.9606  134.5219  157.0891 H   0  0  0  0  0  0  0  0  0  0  0  0
  131.2994  135.8112  161.8095 H   0  0  0  0  0  0  0  0  0  0  0  0
  129.9259  135.3563  162.8463 H   0  0  0  0  0  0  0  0  0  0  0  0
  130.6479  134.1559  161.7481 H   0  0  0  0  0  0  0  0  0  0  0  0
  128.3710  137.4114  160.1600 H   0  0  0  0  0  0  0  0  0  0  0  0
  128.5961  137.2575  161.9189 H   0  0  0  0  0  0  0  0  0  0  0  0
  130.1677  138.2086  158.7418 H   0  0  0  0  0  0  0  0  0  0  0  0
  132.2063  139.5778  158.5914 H   0  0  0  0  0  0  0  0  0  0  0  0
  133.6411  141.1110  162.5869 H   0  0  0  0  0  0  0  0  0  0  0  0
  135.6926  142.4607  162.4387 H   0  0  0  0  0  0  0  0  0  0  0  0
  137.0502  142.4215  160.3874 H   0  0  0  0  0  0  0  0  0  0  0  0
  136.3696  141.0262  158.4786 H   0  0  0  0  0  0  0  0  0  0  0  0
  134.3261  139.6631  158.6131 H   0  0  0  0  0  0  0  0  0  0  0  0
  132.7589  139.1907  162.8224 H   0  0  0  0  0  0  0  0  0  0  0  0
  130.7130  137.8309  162.9559 H   0  0  0  0  0  0  0  0  0  0  0  0
  130.5648  136.1487  159.0578 H   0  0  0  0  0  0  0  0  0  0  0  0
  128.8822  131.1712  158.3638 H   0  0  0  0  0  0  0  0  0  0  0  0
  130.5148  133.7352  154.8642 H   0  0  0  0  0  0  0  0  0  0  0  0
  131.1394  132.5474  152.8025 H   0  0  0  0  0  0  0  0  0  0  0  0
  131.0546  128.8316  154.8993 H   0  0  0  0  0  0  0  0  0  0  0  0
  130.4379  130.0047  156.9715 H   0  0  0  0  0  0  0  0  0  0  0  0
  1  2  1  0
  1 32  1  0
  1 33  1  0
  1 34  1  0
  2  3  1  6
  2  4  1  0
  2 17  1  0
  4  5  1  0
  4 35  1  0
  4 36  1  0
  5 16  1  0
  5  6  2  0
  6  7  1  0
  6 37  1  0
  7  8  2  0
  7 38  1  0
  8  9  1  0
  8 15  1  0
  9 14  1  0
  9 10  2  0
 10 11  1  0
 10 39  1  0
 11 12  2  0
 11 40  1  0
 12 13  1  0
 12 41  1  0
 13 14  2  0
 13 42  1  0
 14 43  1  0
 15 16  2  0
 15 44  1  0
 16 45  1  0
 17 46  1  0
 18 17  1  0
 18 30  2  0
 18 19  1  0
 19 20  1  0
 19 21  1  0
 21 22  2  0
 21 47  1  0
 22 23  1  0
 22 30  1  0
 23 29  1  0
 23 24  2  0
 24 25  1  0
 24 48  1  0
 25 26  2  0
 25 49  1  0
 26 27  1  0
 26 28  1  0
 28 29  2  0
 28 50  1  0
 29 51  1  0
 30 31  1  0
M  CHG  1  30   1
M  END
>  <DOCK_score>  (1) 
-58.133575

>  <SMILES>  (1) 
C[C@@H](Cc1ccc(-c2ccccc2)cc1)Nc1[nH]cc(-c2ccc(Br)cc2)[nH+]1

$$$$
