CNc1ccc(Nc2cc(Cl)c(Nc3[nH]c4ccccc4[nH+]3)cc2Cl)cc1
     RDKit          3D

 45 48  0  0  0  0  0  0  0  0999 V2000
  128.3573  138.6804  168.6684 C   0  0  0  0  0  0  0  0  0  0  0  0
  128.6073  137.4227  167.9598 N   0  0  0  0  0  0  0  0  0  0  0  0
  127.9843  137.1760  166.7309 C   0  0  0  0  0  0  0  0  0  0  0  0
  127.1293  138.1234  166.1833 C   0  0  0  0  0  0  0  0  0  0  0  0
  126.5152  137.8803  164.9707 C   0  0  0  0  0  0  0  0  0  0  0  0
  126.7525  136.6882  164.2988 C   0  0  0  0  0  0  0  0  0  0  0  0
  126.1299  136.4415  163.0694 N   0  0  0  0  0  0  0  0  0  0  0  0
  126.9044  136.2220  161.9241 C   0  0  0  0  0  0  0  0  0  0  0  0
  128.1494  136.8250  161.8013 C   0  0  0  0  0  0  0  0  0  0  0  0
  128.9158  136.6040  160.6734 C   0  0  0  0  0  0  0  0  0  0  0  0
  130.4748  137.3527  160.5228 Cl  0  0  0  0  0  0  0  0  0  0  0  0
  128.4361  135.7869  159.6565 C   0  0  0  0  0  0  0  0  0  0  0  0
  129.2117  135.5666  158.5101 N   0  0  0  0  0  0  0  0  0  0  0  0
  129.6006  134.2894  158.1776 C   0  0  0  0  0  0  0  0  0  0  0  0
  129.3019  133.1954  158.8751 N   0  0  0  0  0  0  0  0  0  0  0  0
  128.7802  133.1687  159.6923 H   0  0  0  0  0  0  0  0  0  0  0  0
  129.8536  132.1133  158.2413 C   0  0  0  0  0  0  0  0  0  0  0  0
  129.8678  130.7468  158.5053 C   0  0  0  0  0  0  0  0  0  0  0  0
  130.5363  129.8920  157.6560 C   0  0  0  0  0  0  0  0  0  0  0  0
  131.1958  130.3837  156.5389 C   0  0  0  0  0  0  0  0  0  0  0  0
  131.1921  131.7337  156.2631 C   0  0  0  0  0  0  0  0  0  0  0  0
  130.5217  132.6112  157.1106 C   0  0  0  0  0  0  0  0  0  0  0  0
  130.3354  133.9684  157.1148 N   0  0  0  0  0  0  0  0  0  0  0  0
  130.6808  134.5902  156.4552 H   0  0  0  0  0  0  0  0  0  0  0  0
  127.1894  135.1885  159.7765 C   0  0  0  0  0  0  0  0  0  0  0  0
  126.4250  135.4049  160.9072 C   0  0  0  0  0  0  0  0  0  0  0  0
  124.8657  134.6566  161.0572 Cl  0  0  0  0  0  0  0  0  0  0  0  0
  127.6032  135.7383  164.8493 C   0  0  0  0  0  0  0  0  0  0  0  0
  128.2217  135.9840  166.0591 C   0  0  0  0  0  0  0  0  0  0  0  0
  127.2937  138.7673  168.8901 H   0  0  0  0  0  0  0  0  0  0  0  0
  128.9247  138.6922  169.5989 H   0  0  0  0  0  0  0  0  0  0  0  0
  128.6677  139.5176  168.0430 H   0  0  0  0  0  0  0  0  0  0  0  0
  129.2046  136.7610  168.3423 H   0  0  0  0  0  0  0  0  0  0  0  0
  126.9445  139.0502  166.7059 H   0  0  0  0  0  0  0  0  0  0  0  0
  125.8499  138.6170  164.5449 H   0  0  0  0  0  0  0  0  0  0  0  0
  125.1619  136.4269  163.0104 H   0  0  0  0  0  0  0  0  0  0  0  0
  128.5202  137.4636  162.5895 H   0  0  0  0  0  0  0  0  0  0  0  0
  129.4742  136.3146  157.9510 H   0  0  0  0  0  0  0  0  0  0  0  0
  129.3560  130.3575  159.3731 H   0  0  0  0  0  0  0  0  0  0  0  0
  130.5466  128.8317  157.8613 H   0  0  0  0  0  0  0  0  0  0  0  0
  131.7161  129.7034  155.8810 H   0  0  0  0  0  0  0  0  0  0  0  0
  131.7075  132.1100  155.3918 H   0  0  0  0  0  0  0  0  0  0  0  0
  126.8169  134.5535  158.9863 H   0  0  0  0  0  0  0  0  0  0  0  0
  127.7841  134.8092  164.3291 H   0  0  0  0  0  0  0  0  0  0  0  0
  128.8867  135.2473  166.4849 H   0  0  0  0  0  0  0  0  0  0  0  0
  1  2  1  0
  1 30  1  0
  1 31  1  0
  1 32  1  0
  2  3  1  0
  2 33  1  0
  3 29  2  0
  3  4  1  0
  4  5  2  0
  4 34  1  0
  5  6  1  0
  5 35  1  0
  6  7  1  0
  6 28  2  0
  7  8  1  0
  7 36  1  0
  8 26  1  0
  8  9  2  0
  9 10  1  0
  9 37  1  0
 10 11  1  0
 10 12  2  0
 12 13  1  0
 12 25  1  0
 13 14  1  0
 13 38  1  0
 14 23  1  0
 14 15  2  0
 15 16  1  0
 15 17  1  0
 17 22  2  0
 17 18  1  0
 18 19  2  0
 18 39  1  0
 19 20  1  0
 19 40  1  0
 20 21  2  0
 20 41  1  0
 21 22  1  0
 21 42  1  0
 22 23  1  0
 23 24  1  0
 25 26  2  0
 25 43  1  0
 26 27  1  0
 28 29  1  0
 28 44  1  0
 29 45  1  0
M  CHG  1  15   1
M  END
>  <DOCK_score>  (1) 
-46.805061

>  <SMILES>  (1) 
CNc1ccc(Nc2cc(Cl)c(Nc3[nH]c4ccccc4[nH+]3)cc2Cl)cc1

$$$$
