CCc1ccc(-c2[nH]c(=O)cnc2-c2ccc(C[C@@H]([NH3+])C(=O)Nc3cccc(O)c3)cc2)cc1
     RDKit          3D

 61 64  0  0  1  0  0  0  0  0999 V2000
  135.5279  138.7391  163.3245 C   0  0  0  0  0  0  0  0  0  0  0  0
  134.9143  139.3842  164.5688 C   0  0  0  0  0  0  0  0  0  0  0  0
  133.4451  139.6256  164.3369 C   0  0  0  0  0  0  0  0  0  0  0  0
  132.5253  138.6476  164.6727 C   0  0  0  0  0  0  0  0  0  0  0  0
  131.1786  138.8636  164.4687 C   0  0  0  0  0  0  0  0  0  0  0  0
  130.7445  140.0693  163.9108 C   0  0  0  0  0  0  0  0  0  0  0  0
  129.3063  140.3056  163.6843 C   0  0  0  0  0  0  0  0  0  0  0  0
  128.6776  141.3582  164.2907 N   0  0  0  0  0  0  0  0  0  0  0  0
  129.1718  141.9562  164.8731 H   0  0  0  0  0  0  0  0  0  0  0  0
  127.3609  141.5540  164.0681 C   0  0  0  0  0  0  0  0  0  0  0  0
  126.7808  142.4867  164.5985 O   0  0  0  0  0  0  0  0  0  0  0  0
  126.6589  140.6725  163.2166 C   0  0  0  0  0  0  0  0  0  0  0  0
  127.2776  139.6700  162.6440 N   0  0  0  0  0  0  0  0  0  0  0  0
  128.5808  139.4622  162.8471 C   0  0  0  0  0  0  0  0  0  0  0  0
  129.2575  138.3240  162.1825 C   0  0  0  0  0  0  0  0  0  0  0  0
  128.8319  137.0183  162.4250 C   0  0  0  0  0  0  0  0  0  0  0  0
  129.4633  135.9626  161.7999 C   0  0  0  0  0  0  0  0  0  0  0  0
  130.5224  136.1967  160.9413 C   0  0  0  0  0  0  0  0  0  0  0  0
  131.2111  135.0388  160.2658 C   0  0  0  0  0  0  0  0  0  0  0  0
  130.5252  134.7468  158.9296 C   0  0  1  0  0  0  0  0  0  0  0  0
  130.2662  135.6861  158.4413 H   0  0  0  0  0  0  0  0  0  0  0  0
  131.4367  133.9820  158.0682 N   0  0  0  0  0  0  0  0  0  0  0  0
  130.9844  133.7894  157.1870 H   0  0  0  0  0  0  0  0  0  0  0  0
  132.2754  134.5189  157.9053 H   0  0  0  0  0  0  0  0  0  0  0  0
  131.6765  133.1125  158.5203 H   0  0  0  0  0  0  0  0  0  0  0  0
  129.2726  133.9448  159.1728 C   0  0  0  0  0  0  0  0  0  0  0  0
  129.3205  132.7331  159.1815 O   0  0  0  0  0  0  0  0  0  0  0  0
  128.0992  134.5744  159.3804 N   0  0  0  0  0  0  0  0  0  0  0  0
  126.9362  133.8299  159.6063 C   0  0  0  0  0  0  0  0  0  0  0  0
  126.7938  132.5717  159.0345 C   0  0  0  0  0  0  0  0  0  0  0  0
  125.6482  131.8344  159.2622 C   0  0  0  0  0  0  0  0  0  0  0  0
  124.6363  132.3504  160.0496 C   0  0  0  0  0  0  0  0  0  0  0  0
  124.7706  133.6088  160.6186 C   0  0  0  0  0  0  0  0  0  0  0  0
  123.7746  134.1152  161.3921 O   0  0  0  0  0  0  0  0  0  0  0  0
  125.9213  134.3495  160.3971 C   0  0  0  0  0  0  0  0  0  0  0  0
  130.9527  137.4893  160.7009 C   0  0  0  0  0  0  0  0  0  0  0  0
  130.3262  138.5535  161.3166 C   0  0  0  0  0  0  0  0  0  0  0  0
  131.6796  141.0498  163.5690 C   0  0  0  0  0  0  0  0  0  0  0  0
  133.0226  140.8218  163.7841 C   0  0  0  0  0  0  0  0  0  0  0  0
  135.0308  137.7898  163.1247 H   0  0  0  0  0  0  0  0  0  0  0  0
  136.5907  138.5645  163.4922 H   0  0  0  0  0  0  0  0  0  0  0  0
  135.3994  139.4035  162.4699 H   0  0  0  0  0  0  0  0  0  0  0  0
  135.0430  138.7199  165.4233 H   0  0  0  0  0  0  0  0  0  0  0  0
  135.4115  140.3335  164.7686 H   0  0  0  0  0  0  0  0  0  0  0  0
  132.8626  137.7147  165.0997 H   0  0  0  0  0  0  0  0  0  0  0  0
  130.4614  138.1014  164.7352 H   0  0  0  0  0  0  0  0  0  0  0  0
  125.6053  140.8263  163.0362 H   0  0  0  0  0  0  0  0  0  0  0  0
  128.0076  136.8340  163.0982 H   0  0  0  0  0  0  0  0  0  0  0  0
  129.1321  134.9511  161.9838 H   0  0  0  0  0  0  0  0  0  0  0  0
  132.2569  135.2906  160.0898 H   0  0  0  0  0  0  0  0  0  0  0  0
  131.1519  134.1579  160.9048 H   0  0  0  0  0  0  0  0  0  0  0  0
  128.0608  135.5436  159.3733 H   0  0  0  0  0  0  0  0  0  0  0  0
  127.5812  132.1680  158.4152 H   0  0  0  0  0  0  0  0  0  0  0  0
  125.5410  130.8548  158.8202 H   0  0  0  0  0  0  0  0  0  0  0  0
  123.7399  131.7733  160.2225 H   0  0  0  0  0  0  0  0  0  0  0  0
  123.9592  134.9967  161.7439 H   0  0  0  0  0  0  0  0  0  0  0  0
  126.0278  135.3289  160.8393 H   0  0  0  0  0  0  0  0  0  0  0  0
  131.7806  137.6659  160.0303 H   0  0  0  0  0  0  0  0  0  0  0  0
  130.6625  139.5624  161.1277 H   0  0  0  0  0  0  0  0  0  0  0  0
  131.3514  141.9837  163.1372 H   0  0  0  0  0  0  0  0  0  0  0  0
  133.7465  141.5785  163.5201 H   0  0  0  0  0  0  0  0  0  0  0  0
  1  2  1  0
  1 40  1  0
  1 41  1  0
  1 42  1  0
  2  3  1  0
  2 43  1  0
  2 44  1  0
  3 39  2  0
  3  4  1  0
  4  5  2  0
  4 45  1  0
  5  6  1  0
  5 46  1  0
  6  7  1  0
  6 38  2  0
  7 14  2  0
  7  8  1  0
  8  9  1  0
  8 10  1  0
 10 11  2  0
 10 12  1  0
 12 13  2  0
 12 47  1  0
 13 14  1  0
 14 15  1  0
 15 37  1  0
 15 16  2  0
 16 17  1  0
 16 48  1  0
 17 18  2  0
 17 49  1  0
 18 19  1  0
 18 36  1  0
 19 20  1  0
 19 50  1  0
 19 51  1  0
 20 21  1  6
 20 22  1  0
 20 26  1  0
 22 23  1  0
 22 24  1  0
 22 25  1  0
 26 27  2  0
 26 28  1  0
 28 29  1  0
 28 52  1  0
 29 35  1  0
 29 30  2  0
 30 31  1  0
 30 53  1  0
 31 32  2  0
 31 54  1  0
 32 33  1  0
 32 55  1  0
 33 34  1  0
 33 35  2  0
 34 56  1  0
 35 57  1  0
 36 37  2  0
 36 58  1  0
 37 59  1  0
 38 39  1  0
 38 60  1  0
 39 61  1  0
M  CHG  1  22   1
M  END
>  <DOCK_score>  (1) 
-42.792549

>  <SMILES>  (1) 
CCc1ccc(-c2[nH]c(=O)cnc2-c2ccc(C[C@@H]([NH3+])C(=O)Nc3cccc(O)c3)cc2)cc1

$$$$
