COc1ccc2c(c1)OCC([NH+]=C(N[C@H]1CC=C(C)CC1)N[C@H]1CCC(=O)NC1)C2
     RDKit          3D

 63 66  0  0  1  0  0  0  0  0999 V2000
  135.4474  136.7240  166.2243 C   0  0  0  0  0  0  0  0  0  0  0  0
  135.6206  135.7164  165.2260 O   0  0  0  0  0  0  0  0  0  0  0  0
  134.7278  135.7029  164.2017 C   0  0  0  0  0  0  0  0  0  0  0  0
  133.7050  136.6402  164.1579 C   0  0  0  0  0  0  0  0  0  0  0  0
  132.8010  136.6244  163.1152 C   0  0  0  0  0  0  0  0  0  0  0  0
  132.9074  135.6776  162.1094 C   0  0  0  0  0  0  0  0  0  0  0  0
  133.9235  134.7381  162.1502 C   0  0  0  0  0  0  0  0  0  0  0  0
  134.8359  134.7538  163.1994 C   0  0  0  0  0  0  0  0  0  0  0  0
  134.0599  133.7890  161.1879 O   0  0  0  0  0  0  0  0  0  0  0  0
  133.3804  133.9921  159.9482 C   0  0  0  0  0  0  0  0  0  0  0  0
  131.9214  134.3577  160.2504 C   0  0  2  0  0  0  0  0  0  0  0  0
  131.1707  134.4696  158.9973 N   0  0  0  0  0  0  0  0  0  0  0  0
  131.6212  134.7504  158.1854 H   0  0  0  0  0  0  0  0  0  0  0  0
  129.8974  134.1918  158.9734 C   0  0  0  0  0  0  0  0  0  0  0  0
  129.3237  133.6952  157.8269 N   0  0  0  0  0  0  0  0  0  0  0  0
  130.1179  132.8809  156.9037 C   0  0  1  0  0  0  0  0  0  0  0  0
  130.9667  133.4607  156.5411 H   0  0  0  0  0  0  0  0  0  0  0  0
  130.6163  131.6257  157.6234 C   0  0  0  0  0  0  0  0  0  0  0  0
  131.2005  130.6604  156.6340 C   0  0  0  0  0  0  0  0  0  0  0  0
  130.9900  130.7133  155.3579 C   0  0  0  0  0  0  0  0  0  0  0  0
  131.6387  129.6654  154.4906 C   0  0  0  0  0  0  0  0  0  0  0  0
  130.1404  131.7534  154.6884 C   0  0  0  0  0  0  0  0  0  0  0  0
  129.2461  132.4466  155.7185 C   0  0  0  0  0  0  0  0  0  0  0  0
  129.1282  134.3954  160.0945 N   0  0  0  0  0  0  0  0  0  0  0  0
  127.6971  134.0832  160.0676 C   0  0  1  0  0  0  0  0  0  0  0  0
  127.3114  134.2222  159.0575 H   0  0  0  0  0  0  0  0  0  0  0  0
  127.4792  132.6301  160.5061 C   0  0  0  0  0  0  0  0  0  0  0  0
  126.0049  132.2768  160.2946 C   0  0  0  0  0  0  0  0  0  0  0  0
  125.1330  133.3457  160.8883 C   0  0  0  0  0  0  0  0  0  0  0  0
  123.9683  133.0836  161.1015 O   0  0  0  0  0  0  0  0  0  0  0  0
  125.5712  134.5676  161.1940 N   0  0  0  0  0  0  0  0  0  0  0  0
  126.9528  135.0037  161.0356 C   0  0  0  0  0  0  0  0  0  0  0  0
  131.9048  135.7012  160.9835 C   0  0  0  0  0  0  0  0  0  0  0  0
  136.2246  136.6225  166.9818 H   0  0  0  0  0  0  0  0  0  0  0  0
  135.5169  137.7089  165.7624 H   0  0  0  0  0  0  0  0  0  0  0  0
  134.4687  136.6095  166.6902 H   0  0  0  0  0  0  0  0  0  0  0  0
  133.6171  137.3813  164.9385 H   0  0  0  0  0  0  0  0  0  0  0  0
  132.0060  137.3547  163.0830 H   0  0  0  0  0  0  0  0  0  0  0  0
  135.6309  134.0237  163.2326 H   0  0  0  0  0  0  0  0  0  0  0  0
  133.4147  133.0773  159.3566 H   0  0  0  0  0  0  0  0  0  0  0  0
  133.8559  134.8040  159.3977 H   0  0  0  0  0  0  0  0  0  0  0  0
  131.4729  133.5892  160.8799 H   0  0  0  0  0  0  0  0  0  0  0  0
  128.3929  133.8840  157.6293 H   0  0  0  0  0  0  0  0  0  0  0  0
  131.3796  131.9049  158.3498 H   0  0  0  0  0  0  0  0  0  0  0  0
  129.7825  131.1503  158.1399 H   0  0  0  0  0  0  0  0  0  0  0  0
  131.8359  129.8721  157.0101 H   0  0  0  0  0  0  0  0  0  0  0  0
  132.2193  128.9859  155.1147 H   0  0  0  0  0  0  0  0  0  0  0  0
  130.8687  129.1042  153.9612 H   0  0  0  0  0  0  0  0  0  0  0  0
  132.2975  130.1482  153.7688 H   0  0  0  0  0  0  0  0  0  0  0  0
  129.5174  131.2781  153.9307 H   0  0  0  0  0  0  0  0  0  0  0  0
  130.7836  132.4934  154.2120 H   0  0  0  0  0  0  0  0  0  0  0  0
  128.4786  131.7536  156.0629 H   0  0  0  0  0  0  0  0  0  0  0  0
  128.7783  133.3218  155.2678 H   0  0  0  0  0  0  0  0  0  0  0  0
  129.5331  134.7458  160.9033 H   0  0  0  0  0  0  0  0  0  0  0  0
  128.1048  131.9682  159.9071 H   0  0  0  0  0  0  0  0  0  0  0  0
  127.7346  132.5227  161.5603 H   0  0  0  0  0  0  0  0  0  0  0  0
  125.8017  132.1954  159.2268 H   0  0  0  0  0  0  0  0  0  0  0  0
  125.7879  131.3243  160.7780 H   0  0  0  0  0  0  0  0  0  0  0  0
  124.9301  135.2060  161.5438 H   0  0  0  0  0  0  0  0  0  0  0  0
  127.4502  134.9844  162.0054 H   0  0  0  0  0  0  0  0  0  0  0  0
  126.9669  136.0221  160.6473 H   0  0  0  0  0  0  0  0  0  0  0  0
  132.1614  136.4984  160.2858 H   0  0  0  0  0  0  0  0  0  0  0  0
  130.9089  135.8812  161.3884 H   0  0  0  0  0  0  0  0  0  0  0  0
  1  2  1  0
  1 34  1  0
  1 35  1  0
  1 36  1  0
  2  3  1  0
  3  8  2  0
  3  4  1  0
  4  5  2  0
  4 37  1  0
  5  6  1  0
  5 38  1  0
  6 33  1  0
  6  7  2  0
  7  8  1  0
  7  9  1  0
  8 39  1  0
  9 10  1  0
 10 11  1  0
 10 40  1  0
 10 41  1  0
 11 12  1  0
 11 33  1  0
 11 42  1  1
 12 13  1  0
 14 12  2  0
 14 15  1  0
 14 24  1  0
 15 16  1  0
 15 43  1  0
 16 17  1  6
 16 23  1  0
 16 18  1  0
 18 19  1  0
 18 44  1  0
 18 45  1  0
 19 20  2  0
 19 46  1  0
 20 21  1  0
 20 22  1  0
 21 47  1  0
 21 48  1  0
 21 49  1  0
 22 23  1  0
 22 50  1  0
 22 51  1  0
 23 52  1  0
 23 53  1  0
 24 25  1  0
 24 54  1  0
 25 26  1  6
 25 32  1  0
 25 27  1  0
 27 28  1  0
 27 55  1  0
 27 56  1  0
 28 29  1  0
 28 57  1  0
 28 58  1  0
 29 30  2  0
 29 31  1  0
 31 32  1  0
 31 59  1  0
 32 60  1  0
 32 61  1  0
 33 62  1  0
 33 63  1  0
M  CHG  1  12   1
M  END
>  <DOCK_score>  (1) 
-46.172592

>  <SMILES>  (1) 
COc1ccc2c(c1)OCC([NH+]=C(N[C@H]1CC=C(C)CC1)N[C@H]1CCC(=O)NC1)C2

$$$$
