O=C1CC[C@H](NC(N[C@H]2C[C@@H](Br)C2)=[NH+]Cc2cc3c(s2)CCOC3)CN1
     RDKit          3D

 52 55  0  0  1  0  0  0  0  0999 V2000
  123.9568  132.3173  161.6815 O   0  0  0  0  0  0  0  0  0  0  0  0
  125.0020  132.8484  161.3710 C   0  0  0  0  0  0  0  0  0  0  0  0
  126.1421  131.9733  160.9355 C   0  0  0  0  0  0  0  0  0  0  0  0
  127.4564  132.7543  161.0110 C   0  0  0  0  0  0  0  0  0  0  0  0
  127.2587  134.1046  160.3120 C   0  0  2  0  0  0  0  0  0  0  0  0
  126.8540  133.9434  159.3128 H   0  0  0  0  0  0  0  0  0  0  0  0
  128.5439  134.8010  160.2153 N   0  0  0  0  0  0  0  0  0  0  0  0
  129.3475  134.6115  159.1159 C   0  0  0  0  0  0  0  0  0  0  0  0
  128.9449  133.7684  158.1073 N   0  0  0  0  0  0  0  0  0  0  0  0
  129.8011  133.5665  156.9358 C   0  0  1  0  0  0  0  0  0  0  0  0
  129.9969  134.4898  156.3904 H   0  0  0  0  0  0  0  0  0  0  0  0
  131.0673  132.7458  157.2324 C   0  0  0  0  0  0  0  0  0  0  0  0
  130.8391  132.0536  155.8764 C   0  0  1  0  0  0  0  0  0  0  0  0
  131.3201  132.5627  155.0412 H   0  0  0  0  0  0  0  0  0  0  0  0
  131.2016  130.1215  155.9060 Br  0  0  0  0  0  0  0  0  0  0  0  0
  129.3503  132.4036  156.0363 C   0  0  0  0  0  0  0  0  0  0  0  0
  130.4908  135.2310  159.0299 N   0  0  0  0  0  0  0  0  0  0  0  0
  130.8501  135.4677  158.1605 H   0  0  0  0  0  0  0  0  0  0  0  0
  131.2337  135.5702  160.2463 C   0  0  0  0  0  0  0  0  0  0  0  0
  130.8158  136.9365  160.7256 C   0  0  0  0  0  0  0  0  0  0  0  0
  131.3857  138.0835  160.3645 C   0  0  0  0  0  0  0  0  0  0  0  0
  130.8398  139.2295  160.9286 C   0  0  0  0  0  0  0  0  0  0  0  0
  129.8067  138.9844  161.7603 C   0  0  0  0  0  0  0  0  0  0  0  0
  129.4999  137.2584  161.8462 S   0  0  0  0  0  0  0  0  0  0  0  0
  129.0457  140.0671  162.4957 C   0  0  0  0  0  0  0  0  0  0  0  0
  129.8811  141.3527  162.4382 C   0  0  0  0  0  0  0  0  0  0  0  0
  130.3247  141.5623  161.0946 O   0  0  0  0  0  0  0  0  0  0  0  0
  131.3319  140.6452  160.6586 C   0  0  0  0  0  0  0  0  0  0  0  0
  126.2798  134.9458  161.1322 C   0  0  0  0  0  0  0  0  0  0  0  0
  125.0773  134.1783  161.4341 N   0  0  0  0  0  0  0  0  0  0  0  0
  125.9747  131.6443  159.9099 H   0  0  0  0  0  0  0  0  0  0  0  0
  126.2002  131.1027  161.5887 H   0  0  0  0  0  0  0  0  0  0  0  0
  128.2456  132.1937  160.5099 H   0  0  0  0  0  0  0  0  0  0  0  0
  127.7271  132.9172  162.0542 H   0  0  0  0  0  0  0  0  0  0  0  0
  128.8280  135.3957  160.9269 H   0  0  0  0  0  0  0  0  0  0  0  0
  128.0938  133.3073  158.1713 H   0  0  0  0  0  0  0  0  0  0  0  0
  131.9772  133.3451  157.2702 H   0  0  0  0  0  0  0  0  0  0  0  0
  130.9641  132.0771  158.0870 H   0  0  0  0  0  0  0  0  0  0  0  0
  128.7766  131.6411  156.5633 H   0  0  0  0  0  0  0  0  0  0  0  0
  128.8744  132.7267  155.1105 H   0  0  0  0  0  0  0  0  0  0  0  0
  132.3021  135.5717  160.0309 H   0  0  0  0  0  0  0  0  0  0  0  0
  131.0199  134.8326  161.0199 H   0  0  0  0  0  0  0  0  0  0  0  0
  132.2190  138.1207  159.6786 H   0  0  0  0  0  0  0  0  0  0  0  0
  128.8948  139.7716  163.5339 H   0  0  0  0  0  0  0  0  0  0  0  0
  128.0816  140.2320  162.0147 H   0  0  0  0  0  0  0  0  0  0  0  0
  129.2714  142.1983  162.7568 H   0  0  0  0  0  0  0  0  0  0  0  0
  130.7447  141.2561  163.0964 H   0  0  0  0  0  0  0  0  0  0  0  0
  131.5094  140.7748  159.5912 H   0  0  0  0  0  0  0  0  0  0  0  0
  132.2551  140.8244  161.2097 H   0  0  0  0  0  0  0  0  0  0  0  0
  126.7567  135.2459  162.0653 H   0  0  0  0  0  0  0  0  0  0  0  0
  126.0091  135.8374  160.5666 H   0  0  0  0  0  0  0  0  0  0  0  0
  124.2809  134.6669  161.6951 H   0  0  0  0  0  0  0  0  0  0  0  0
  1  2  2  0
  2 30  1  0
  2  3  1  0
  3  4  1  0
  3 31  1  0
  3 32  1  0
  4  5  1  0
  4 33  1  0
  4 34  1  0
  5  6  1  6
  5  7  1  0
  5 29  1  0
  7 35  1  0
  8  7  1  0
  8  9  1  0
  8 17  2  0
  9 10  1  0
  9 36  1  0
 10 11  1  6
 10 16  1  0
 10 12  1  0
 12 13  1  0
 12 37  1  0
 12 38  1  0
 13 14  1  6
 13 15  1  0
 13 16  1  0
 16 39  1  0
 16 40  1  0
 17 18  1  0
 17 19  1  0
 19 20  1  0
 19 41  1  0
 19 42  1  0
 20 24  1  0
 20 21  2  0
 21 22  1  0
 21 43  1  0
 22 28  1  0
 22 23  2  0
 23 24  1  0
 23 25  1  0
 25 26  1  0
 25 44  1  0
 25 45  1  0
 26 27  1  0
 26 46  1  0
 26 47  1  0
 27 28  1  0
 28 48  1  0
 28 49  1  0
 29 30  1  0
 29 50  1  0
 29 51  1  0
 30 52  1  0
M  CHG  1  17   1
M  END
>  <DOCK_score>  (1) 
-42.619064

>  <SMILES>  (1) 
O=C1CC[C@H](NC(N[C@H]2C[C@@H](Br)C2)=[NH+]Cc2cc3c(s2)CCOC3)CN1

$$$$
