O=C1CC[C@H](c2ccc(Nc3ccc(NC4=[NH+]CCN4)cc3)cc2)N1
     RDKit          3D

 47 50  0  0  1  0  0  0  0  0999 V2000
  130.7215  136.1664  169.7128 O   0  0  0  0  0  0  0  0  0  0  0  0
  129.6179  136.4965  169.3334 C   0  0  0  0  0  0  0  0  0  0  0  0
  128.3258  136.1955  170.0602 C   0  0  0  0  0  0  0  0  0  0  0  0
  127.2281  136.4384  168.9986 C   0  0  0  0  0  0  0  0  0  0  0  0
  127.9276  137.4312  168.0437 C   0  0  2  0  0  0  0  0  0  0  0  0
  127.6873  138.4567  168.3238 H   0  0  0  0  0  0  0  0  0  0  0  0
  127.5091  137.1683  166.6201 C   0  0  0  0  0  0  0  0  0  0  0  0
  127.7579  135.9357  166.0443 C   0  0  0  0  0  0  0  0  0  0  0  0
  127.3706  135.6896  164.7418 C   0  0  0  0  0  0  0  0  0  0  0  0
  126.7406  136.6855  164.0060 C   0  0  0  0  0  0  0  0  0  0  0  0
  126.3532  136.4414  162.6866 N   0  0  0  0  0  0  0  0  0  0  0  0
  127.3127  136.0984  161.7273 C   0  0  0  0  0  0  0  0  0  0  0  0
  126.9661  135.2792  160.6605 C   0  0  0  0  0  0  0  0  0  0  0  0
  127.9118  134.9441  159.7121 C   0  0  0  0  0  0  0  0  0  0  0  0
  129.2117  135.4175  159.8301 C   0  0  0  0  0  0  0  0  0  0  0  0
  130.1728  135.0733  158.8699 N   0  0  0  0  0  0  0  0  0  0  0  0
  130.0843  133.8759  158.2113 C   0  0  0  0  0  0  0  0  0  0  0  0
  129.5529  132.7957  158.7604 N   0  0  0  0  0  0  0  0  0  0  0  0
  129.1841  132.7444  159.6562 H   0  0  0  0  0  0  0  0  0  0  0  0
  129.6068  131.6853  157.7966 C   0  0  0  0  0  0  0  0  0  0  0  0
  130.2856  132.3137  156.5628 C   0  0  0  0  0  0  0  0  0  0  0  0
  130.5284  133.7045  156.9767 N   0  0  0  0  0  0  0  0  0  0  0  0
  129.5598  136.2319  160.8997 C   0  0  0  0  0  0  0  0  0  0  0  0
  128.6132  136.5715  161.8455 C   0  0  0  0  0  0  0  0  0  0  0  0
  126.4974  137.9246  164.5858 C   0  0  0  0  0  0  0  0  0  0  0  0
  126.8823  138.1620  165.8906 C   0  0  0  0  0  0  0  0  0  0  0  0
  129.3651  137.1839  168.2063 N   0  0  0  0  0  0  0  0  0  0  0  0
  128.1963  136.8725  170.9046 H   0  0  0  0  0  0  0  0  0  0  0  0
  128.3094  135.1585  170.3954 H   0  0  0  0  0  0  0  0  0  0  0  0
  126.3429  136.8879  169.4485 H   0  0  0  0  0  0  0  0  0  0  0  0
  126.9734  135.5134  168.4813 H   0  0  0  0  0  0  0  0  0  0  0  0
  128.2518  135.1635  166.6153 H   0  0  0  0  0  0  0  0  0  0  0  0
  127.5612  134.7253  164.2941 H   0  0  0  0  0  0  0  0  0  0  0  0
  125.4189  136.5113  162.4345 H   0  0  0  0  0  0  0  0  0  0  0  0
  125.9562  134.9074  160.5708 H   0  0  0  0  0  0  0  0  0  0  0  0
  127.6414  134.3104  158.8804 H   0  0  0  0  0  0  0  0  0  0  0  0
  130.9007  135.6831  158.6716 H   0  0  0  0  0  0  0  0  0  0  0  0
  128.6035  131.3392  157.5483 H   0  0  0  0  0  0  0  0  0  0  0  0
  130.2082  130.8656  158.1897 H   0  0  0  0  0  0  0  0  0  0  0  0
  129.6202  132.2805  155.7000 H   0  0  0  0  0  0  0  0  0  0  0  0
  131.2262  131.8087  156.3432 H   0  0  0  0  0  0  0  0  0  0  0  0
  130.9480  134.3878  156.4309 H   0  0  0  0  0  0  0  0  0  0  0  0
  130.5710  136.5998  160.9914 H   0  0  0  0  0  0  0  0  0  0  0  0
  128.8838  137.2055  162.6770 H   0  0  0  0  0  0  0  0  0  0  0  0
  126.0083  138.7011  164.0166 H   0  0  0  0  0  0  0  0  0  0  0  0
  126.6938  139.1250  166.3419 H   0  0  0  0  0  0  0  0  0  0  0  0
  130.0453  137.4785  167.5807 H   0  0  0  0  0  0  0  0  0  0  0  0
  1  2  2  0
  2 27  1  0
  2  3  1  0
  3  4  1  0
  3 28  1  0
  3 29  1  0
  4  5  1  0
  4 30  1  0
  4 31  1  0
  5  6  1  1
  5  7  1  0
  5 27  1  0
  7 26  1  0
  7  8  2  0
  8  9  1  0
  8 32  1  0
  9 10  2  0
  9 33  1  0
 10 11  1  0
 10 25  1  0
 11 12  1  0
 11 34  1  0
 12 24  1  0
 12 13  2  0
 13 14  1  0
 13 35  1  0
 14 15  2  0
 14 36  1  0
 15 16  1  0
 15 23  1  0
 16 17  1  0
 16 37  1  0
 17 22  2  0
 17 18  1  0
 18 19  1  0
 18 20  1  0
 20 21  1  0
 20 38  1  0
 20 39  1  0
 21 22  1  0
 21 40  1  0
 21 41  1  0
 22 42  1  0
 23 24  2  0
 23 43  1  0
 24 44  1  0
 25 26  2  0
 25 45  1  0
 26 46  1  0
 27 47  1  0
M  CHG  1  22   1
M  END
>  <DOCK_score>  (1) 
-42.2356

>  <SMILES>  (1) 
O=C1CC[C@H](c2ccc(Nc3ccc(NC4=[NH+]CCN4)cc3)cc2)N1

$$$$
