Oc1cccc(-c2c[nH]c(Nc3ccc(C4CCCCC4)cc3SC3CCCCC3)[nH+]2)c1
     RDKit          3D

 66 70  0  0  1  0  0  0  0  0999 V2000
  123.7081  134.3043  161.3058 O   0  0  0  0  0  0  0  0  0  0  0  0
  124.6663  133.5417  160.7165 C   0  0  0  0  0  0  0  0  0  0  0  0
  124.4084  132.2101  160.4194 C   0  0  0  0  0  0  0  0  0  0  0  0
  125.3798  131.4310  159.8198 C   0  0  0  0  0  0  0  0  0  0  0  0
  126.6104  131.9735  159.5085 C   0  0  0  0  0  0  0  0  0  0  0  0
  126.8793  133.3079  159.8082 C   0  0  0  0  0  0  0  0  0  0  0  0
  128.2027  133.8920  159.4795 C   0  0  0  0  0  0  0  0  0  0  0  0
  129.0056  133.5212  158.4512 C   0  0  0  0  0  0  0  0  0  0  0  0
  130.1229  134.3176  158.5105 N   0  0  0  0  0  0  0  0  0  0  0  0
  130.8795  134.2922  157.9040 H   0  0  0  0  0  0  0  0  0  0  0  0
  129.9738  135.1475  159.5794 C   0  0  0  0  0  0  0  0  0  0  0  0
  130.8843  136.1073  159.9887 N   0  0  0  0  0  0  0  0  0  0  0  0
  130.9798  136.4494  161.3434 C   0  0  0  0  0  0  0  0  0  0  0  0
  130.6935  135.5078  162.3204 C   0  0  0  0  0  0  0  0  0  0  0  0
  130.7885  135.8476  163.6572 C   0  0  0  0  0  0  0  0  0  0  0  0
  131.1687  137.1254  164.0248 C   0  0  0  0  0  0  0  0  0  0  0  0
  131.2700  137.4883  165.4840 C   0  0  0  0  0  0  0  0  0  0  0  0
  129.9065  137.3002  166.1522 C   0  0  0  0  0  0  0  0  0  0  0  0
  130.0094  137.6685  167.6336 C   0  0  0  0  0  0  0  0  0  0  0  0
  131.0397  136.7647  168.3137 C   0  0  0  0  0  0  0  0  0  0  0  0
  132.4031  136.9529  167.6454 C   0  0  0  0  0  0  0  0  0  0  0  0
  132.3003  136.5845  166.1641 C   0  0  0  0  0  0  0  0  0  0  0  0
  131.4505  138.0724  163.0582 C   0  0  0  0  0  0  0  0  0  0  0  0
  131.3631  137.7390  161.7142 C   0  0  0  0  0  0  0  0  0  0  0  0
  131.7282  138.9417  160.4796 S   0  0  0  0  0  0  0  0  0  0  0  0
  133.5064  138.7146  160.2018 C   0  0  0  0  0  0  0  0  0  0  0  0
  134.2901  139.4231  161.3083 C   0  0  0  0  0  0  0  0  0  0  0  0
  135.7898  139.2314  161.0741 C   0  0  0  0  0  0  0  0  0  0  0  0
  136.1739  139.8248  159.7171 C   0  0  0  0  0  0  0  0  0  0  0  0
  135.3903  139.1161  158.6105 C   0  0  0  0  0  0  0  0  0  0  0  0
  133.8904  139.3078  158.8447 C   0  0  0  0  0  0  0  0  0  0  0  0
  128.8235  134.8918  160.1539 N   0  0  0  0  0  0  0  0  0  0  0  0
  128.4722  135.3455  160.9360 H   0  0  0  0  0  0  0  0  0  0  0  0
  125.8997  134.0930  160.4121 C   0  0  0  0  0  0  0  0  0  0  0  0
  123.9799  135.2172  161.4731 H   0  0  0  0  0  0  0  0  0  0  0  0
  123.4458  131.7822  160.6573 H   0  0  0  0  0  0  0  0  0  0  0  0
  125.1739  130.3958  159.5902 H   0  0  0  0  0  0  0  0  0  0  0  0
  127.3661  131.3631  159.0362 H   0  0  0  0  0  0  0  0  0  0  0  0
  128.8033  132.7500  157.7228 H   0  0  0  0  0  0  0  0  0  0  0  0
  131.4558  136.5428  159.3370 H   0  0  0  0  0  0  0  0  0  0  0  0
  130.3966  134.5089  162.0369 H   0  0  0  0  0  0  0  0  0  0  0  0
  130.5654  135.1129  164.4165 H   0  0  0  0  0  0  0  0  0  0  0  0
  131.5806  138.5288  165.5789 H   0  0  0  0  0  0  0  0  0  0  0  0
  129.1726  137.9440  165.6678 H   0  0  0  0  0  0  0  0  0  0  0  0
  129.5960  136.2596  166.0573 H   0  0  0  0  0  0  0  0  0  0  0  0
  129.0381  137.5344  168.1096 H   0  0  0  0  0  0  0  0  0  0  0  0
  130.3200  138.7090  167.7285 H   0  0  0  0  0  0  0  0  0  0  0  0
  130.7291  135.7243  168.2187 H   0  0  0  0  0  0  0  0  0  0  0  0
  131.1129  137.0272  169.3690 H   0  0  0  0  0  0  0  0  0  0  0  0
  133.1372  136.3090  168.1299 H   0  0  0  0  0  0  0  0  0  0  0  0
  132.7138  137.9934  167.7404 H   0  0  0  0  0  0  0  0  0  0  0  0
  131.9897  135.5440  166.0691 H   0  0  0  0  0  0  0  0  0  0  0  0
  133.2716  136.7186  165.6880 H   0  0  0  0  0  0  0  0  0  0  0  0
  131.7430  139.0706  163.3489 H   0  0  0  0  0  0  0  0  0  0  0  0
  133.7428  137.6506  160.2131 H   0  0  0  0  0  0  0  0  0  0  0  0
  134.0535  140.4871  161.2969 H   0  0  0  0  0  0  0  0  0  0  0  0
  134.0165  139.0004  162.2751 H   0  0  0  0  0  0  0  0  0  0  0  0
  136.0263  138.1675  161.0855 H   0  0  0  0  0  0  0  0  0  0  0  0
  136.3481  139.7363  161.8626 H   0  0  0  0  0  0  0  0  0  0  0  0
  137.2424  139.6881  159.5502 H   0  0  0  0  0  0  0  0  0  0  0  0
  135.9374  140.8887  159.7057 H   0  0  0  0  0  0  0  0  0  0  0  0
  135.6267  138.0522  158.6219 H   0  0  0  0  0  0  0  0  0  0  0  0
  135.6639  139.5388  157.6438 H   0  0  0  0  0  0  0  0  0  0  0  0
  133.3322  138.8031  158.0564 H   0  0  0  0  0  0  0  0  0  0  0  0
  133.6540  140.3717  158.8333 H   0  0  0  0  0  0  0  0  0  0  0  0
  126.1015  135.1288  160.6420 H   0  0  0  0  0  0  0  0  0  0  0  0
  1  2  1  0
  1 35  1  0
  2 34  2  0
  2  3  1  0
  3  4  2  0
  3 36  1  0
  4  5  1  0
  4 37  1  0
  5  6  2  0
  5 38  1  0
  6  7  1  0
  6 34  1  0
  7 32  1  0
  7  8  2  0
  8  9  1  0
  8 39  1  0
  9 10  1  0
  9 11  1  0
 11 12  1  0
 11 32  2  0
 12 13  1  0
 12 40  1  0
 13 24  1  0
 13 14  2  0
 14 15  1  0
 14 41  1  0
 15 16  2  0
 15 42  1  0
 16 17  1  0
 16 23  1  0
 17 22  1  0
 17 18  1  0
 17 43  1  0
 18 19  1  0
 18 44  1  0
 18 45  1  0
 19 20  1  0
 19 46  1  0
 19 47  1  0
 20 21  1  0
 20 48  1  0
 20 49  1  0
 21 22  1  0
 21 50  1  0
 21 51  1  0
 22 52  1  0
 22 53  1  0
 23 24  2  0
 23 54  1  0
 24 25  1  0
 25 26  1  0
 26 31  1  0
 26 27  1  0
 26 55  1  0
 27 28  1  0
 27 56  1  0
 27 57  1  0
 28 29  1  0
 28 58  1  0
 28 59  1  0
 29 30  1  0
 29 60  1  0
 29 61  1  0
 30 31  1  0
 30 62  1  0
 30 63  1  0
 31 64  1  0
 31 65  1  0
 32 33  1  0
 34 66  1  0
M  CHG  1  32   1
M  END
>  <DOCK_score>  (1) 
-49.276794

>  <SMILES>  (1) 
Oc1cccc(-c2c[nH]c(Nc3ccc(C4CCCCC4)cc3SC3CCCCC3)[nH+]2)c1

$$$$
