O=C1CCC(NC(N[C@H]2CC=C(c3cccc(O)c3)CC2)=[NH+]C2CCC2)CCN1
     RDKit          3D

 62 65  0  0  1  0  0  0  0  0999 V2000
  125.4311  136.5798  164.4390 O   0  0  0  0  0  0  0  0  0  0  0  0
  126.0013  135.8804  163.6285 C   0  0  0  0  0  0  0  0  0  0  0  0
  127.0089  134.8512  164.0961 C   0  0  0  0  0  0  0  0  0  0  0  0
  128.4086  135.3276  163.7007 C   0  0  0  0  0  0  0  0  0  0  0  0
  128.7322  134.9210  162.2746 C   0  0  2  0  0  0  0  0  0  0  0  0
  130.1398  135.2280  162.0086 N   0  0  0  0  0  0  0  0  0  0  0  0
  130.6828  134.9516  160.7763 C   0  0  0  0  0  0  0  0  0  0  0  0
  131.7089  135.7254  160.2878 N   0  0  0  0  0  0  0  0  0  0  0  0
  132.2236  136.8446  161.0806 C   0  0  1  0  0  0  0  0  0  0  0  0
  131.4250  137.2522  161.7006 H   0  0  0  0  0  0  0  0  0  0  0  0
  133.3715  136.3642  161.9712 C   0  0  0  0  0  0  0  0  0  0  0  0
  134.0742  137.5379  162.5886 C   0  0  0  0  0  0  0  0  0  0  0  0
  133.9571  138.7697  162.1555 C   0  0  0  0  0  0  0  0  0  0  0  0
  134.7120  139.8289  162.8581 C   0  0  0  0  0  0  0  0  0  0  0  0
  135.6577  140.5896  162.1687 C   0  0  0  0  0  0  0  0  0  0  0  0
  136.3564  141.5813  162.8261 C   0  0  0  0  0  0  0  0  0  0  0  0
  136.1272  141.8208  164.1684 C   0  0  0  0  0  0  0  0  0  0  0  0
  135.1928  141.0652  164.8636 C   0  0  0  0  0  0  0  0  0  0  0  0
  134.9715  141.3049  166.1828 O   0  0  0  0  0  0  0  0  0  0  0  0
  134.4857  140.0678  164.2130 C   0  0  0  0  0  0  0  0  0  0  0  0
  133.1065  139.1670  160.9846 C   0  0  0  0  0  0  0  0  0  0  0  0
  132.7578  137.9362  160.1451 C   0  0  0  0  0  0  0  0  0  0  0  0
  130.2248  133.9558  160.0709 N   0  0  0  0  0  0  0  0  0  0  0  0
  129.8543  133.1769  160.5147 H   0  0  0  0  0  0  0  0  0  0  0  0
  130.2695  134.0129  158.6077 C   0  0  0  0  0  0  0  0  0  0  0  0
  129.0371  133.3920  157.9290 C   0  0  0  0  0  0  0  0  0  0  0  0
  130.0067  132.8036  156.8880 C   0  0  0  0  0  0  0  0  0  0  0  0
  131.0948  132.8818  157.9719 C   0  0  0  0  0  0  0  0  0  0  0  0
  127.8785  135.6198  161.2323 C   0  0  0  0  0  0  0  0  0  0  0  0
  126.4188  135.1733  161.3352 C   0  0  0  0  0  0  0  0  0  0  0  0
  125.7385  136.0202  162.3284 N   0  0  0  0  0  0  0  0  0  0  0  0
  126.8004  133.8926  163.6210 H   0  0  0  0  0  0  0  0  0  0  0  0
  126.9509  134.7434  165.1792 H   0  0  0  0  0  0  0  0  0  0  0  0
  129.1419  134.8855  164.3751 H   0  0  0  0  0  0  0  0  0  0  0  0
  128.4548  136.4135  163.7836 H   0  0  0  0  0  0  0  0  0  0  0  0
  128.5877  133.8448  162.1783 H   0  0  0  0  0  0  0  0  0  0  0  0
  130.6886  135.6267  162.7021 H   0  0  0  0  0  0  0  0  0  0  0  0
  132.0920  135.5303  159.4183 H   0  0  0  0  0  0  0  0  0  0  0  0
  132.9742  135.7231  162.7581 H   0  0  0  0  0  0  0  0  0  0  0  0
  134.0822  135.7971  161.3702 H   0  0  0  0  0  0  0  0  0  0  0  0
  134.7110  137.3576  163.4422 H   0  0  0  0  0  0  0  0  0  0  0  0
  135.8390  140.4051  161.1200 H   0  0  0  0  0  0  0  0  0  0  0  0
  137.0849  142.1721  162.2906 H   0  0  0  0  0  0  0  0  0  0  0  0
  136.6773  142.5980  164.6780 H   0  0  0  0  0  0  0  0  0  0  0  0
  134.3040  140.7294  166.5807 H   0  0  0  0  0  0  0  0  0  0  0  0
  133.7583  139.4795  164.7526 H   0  0  0  0  0  0  0  0  0  0  0  0
  132.1882  139.6301  161.3456 H   0  0  0  0  0  0  0  0  0  0  0  0
  133.6513  139.8821  160.3683 H   0  0  0  0  0  0  0  0  0  0  0  0
  131.9939  138.1969  159.4126 H   0  0  0  0  0  0  0  0  0  0  0  0
  133.6503  137.5782  159.6318 H   0  0  0  0  0  0  0  0  0  0  0  0
  130.5230  135.0036  158.2303 H   0  0  0  0  0  0  0  0  0  0  0  0
  128.5379  132.6372  158.5365 H   0  0  0  0  0  0  0  0  0  0  0  0
  128.3477  134.1292  157.5172 H   0  0  0  0  0  0  0  0  0  0  0  0
  130.1874  133.4634  156.0395 H   0  0  0  0  0  0  0  0  0  0  0  0
  129.7624  131.7847  156.5873 H   0  0  0  0  0  0  0  0  0  0  0  0
  132.0641  133.2075  157.5947 H   0  0  0  0  0  0  0  0  0  0  0  0
  131.1593  131.9872  158.5912 H   0  0  0  0  0  0  0  0  0  0  0  0
  127.9374  136.6974  161.3846 H   0  0  0  0  0  0  0  0  0  0  0  0
  128.2563  135.3779  160.2387 H   0  0  0  0  0  0  0  0  0  0  0  0
  126.3755  134.1312  161.6519 H   0  0  0  0  0  0  0  0  0  0  0  0
  125.9308  135.2816  160.3665 H   0  0  0  0  0  0  0  0  0  0  0  0
  125.0953  136.6844  162.0356 H   0  0  0  0  0  0  0  0  0  0  0  0
  1  2  2  0
  2 31  1  0
  2  3  1  0
  3  4  1  0
  3 32  1  0
  3 33  1  0
  4  5  1  0
  4 34  1  0
  4 35  1  0
  5  6  1  0
  5 29  1  0
  5 36  1  1
  6 37  1  0
  7  6  1  0
  7  8  1  0
  7 23  2  0
  8  9  1  0
  8 38  1  0
  9 10  1  1
  9 22  1  0
  9 11  1  0
 11 12  1  0
 11 39  1  0
 11 40  1  0
 12 13  2  0
 12 41  1  0
 13 14  1  0
 13 21  1  0
 14 20  1  0
 14 15  2  0
 15 16  1  0
 15 42  1  0
 16 17  2  0
 16 43  1  0
 17 18  1  0
 17 44  1  0
 18 19  1  0
 18 20  2  0
 19 45  1  0
 20 46  1  0
 21 22  1  0
 21 47  1  0
 21 48  1  0
 22 49  1  0
 22 50  1  0
 23 24  1  0
 23 25  1  0
 25 28  1  0
 25 26  1  0
 25 51  1  0
 26 27  1  0
 26 52  1  0
 26 53  1  0
 27 28  1  0
 27 54  1  0
 27 55  1  0
 28 56  1  0
 28 57  1  0
 29 30  1  0
 29 58  1  0
 29 59  1  0
 30 31  1  0
 30 60  1  0
 30 61  1  0
 31 62  1  0
M  CHG  1  23   1
M  END
>  <DOCK_score>  (1) 
-43.212826

>  <SMILES>  (1) 
O=C1CCC(NC(N[C@H]2CC=C(c3cccc(O)c3)CC2)=[NH+]C2CCC2)CCN1

$$$$
