CCc1ccc(Nc2ccc(-c3n[nH]cc3C[NH2+]C[C@@H]3C[C@H]4CC[C@H]4C3)o2)cc1
     RDKit          3D

 60 64  0  0  1  0  0  0  0  0999 V2000
  128.2533  141.5072  163.8000 C   0  0  0  0  0  0  0  0  0  0  0  0
  128.8808  140.1696  164.1983 C   0  0  0  0  0  0  0  0  0  0  0  0
  128.1118  139.0434  163.5571 C   0  0  0  0  0  0  0  0  0  0  0  0
  128.4792  138.5809  162.3066 C   0  0  0  0  0  0  0  0  0  0  0  0
  127.7765  137.5488  161.7165 C   0  0  0  0  0  0  0  0  0  0  0  0
  126.6993  136.9751  162.3807 C   0  0  0  0  0  0  0  0  0  0  0  0
  125.9860  135.9314  161.7866 N   0  0  0  0  0  0  0  0  0  0  0  0
  126.6275  135.0591  160.9146 C   0  0  0  0  0  0  0  0  0  0  0  0
  126.0521  134.0070  160.2800 C   0  0  0  0  0  0  0  0  0  0  0  0
  127.0544  133.4004  159.4981 C   0  0  0  0  0  0  0  0  0  0  0  0
  128.1961  134.1095  159.7018 C   0  0  0  0  0  0  0  0  0  0  0  0
  129.5097  133.8305  159.0859 C   0  0  0  0  0  0  0  0  0  0  0  0
  129.7791  132.8559  158.2395 N   0  0  0  0  0  0  0  0  0  0  0  0
  131.1344  132.9410  157.8960 N   0  0  0  0  0  0  0  0  0  0  0  0
  131.6054  132.3491  157.2887 H   0  0  0  0  0  0  0  0  0  0  0  0
  131.6719  133.9894  158.5562 C   0  0  0  0  0  0  0  0  0  0  0  0
  130.6973  134.5631  159.2940 C   0  0  0  0  0  0  0  0  0  0  0  0
  130.8517  135.7691  160.1845 C   0  0  0  0  0  0  0  0  0  0  0  0
  132.2409  136.2432  160.1302 N   0  0  0  0  0  0  0  0  0  0  0  0
  132.8590  135.5107  160.4459 H   0  0  0  0  0  0  0  0  0  0  0  0
  132.4739  136.4940  159.1810 H   0  0  0  0  0  0  0  0  0  0  0  0
  132.3914  137.4187  160.9983 C   0  0  0  0  0  0  0  0  0  0  0  0
  133.8385  137.9126  160.9418 C   0  0  2  0  0  0  0  0  0  0  0  0
  134.5122  137.1259  161.2817 H   0  0  0  0  0  0  0  0  0  0  0  0
  134.0005  139.1567  161.8256 C   0  0  0  0  0  0  0  0  0  0  0  0
  134.4689  140.3064  160.9189 C   0  0  1  0  0  0  0  0  0  0  0  0
  133.7502  141.1170  160.7979 H   0  0  0  0  0  0  0  0  0  0  0  0
  135.9219  140.7326  161.1964 C   0  0  0  0  0  0  0  0  0  0  0  0
  136.3386  139.5042  160.3194 C   0  0  0  0  0  0  0  0  0  0  0  0
  134.9792  139.6418  159.6200 C   0  0  1  0  0  0  0  0  0  0  0  0
  134.9705  140.2657  158.7262 H   0  0  0  0  0  0  0  0  0  0  0  0
  134.1940  138.3257  159.5058 C   0  0  0  0  0  0  0  0  0  0  0  0
  127.9237  135.1124  160.5627 O   0  0  0  0  0  0  0  0  0  0  0  0
  126.3298  137.4458  163.6346 C   0  0  0  0  0  0  0  0  0  0  0  0
  127.0399  138.4751  164.2207 C   0  0  0  0  0  0  0  0  0  0  0  0
  128.2068  141.5778  162.7132 H   0  0  0  0  0  0  0  0  0  0  0  0
  127.2462  141.5725  164.2116 H   0  0  0  0  0  0  0  0  0  0  0  0
  128.8596  142.3240  164.1915 H   0  0  0  0  0  0  0  0  0  0  0  0
  128.8487  140.0614  165.2819 H   0  0  0  0  0  0  0  0  0  0  0  0
  129.9172  140.1403  163.8605 H   0  0  0  0  0  0  0  0  0  0  0  0
  129.3163  139.0275  161.7908 H   0  0  0  0  0  0  0  0  0  0  0  0
  128.0636  137.1882  160.7398 H   0  0  0  0  0  0  0  0  0  0  0  0
  125.0421  135.8176  161.9794 H   0  0  0  0  0  0  0  0  0  0  0  0
  125.0210  133.6955  160.3577 H   0  0  0  0  0  0  0  0  0  0  0  0
  126.9390  132.5353  158.8620 H   0  0  0  0  0  0  0  0  0  0  0  0
  132.7000  134.3152  158.5000 H   0  0  0  0  0  0  0  0  0  0  0  0
  130.1841  136.5605  159.8436 H   0  0  0  0  0  0  0  0  0  0  0  0
  130.6001  135.4981  161.2099 H   0  0  0  0  0  0  0  0  0  0  0  0
  131.7239  138.2101  160.6572 H   0  0  0  0  0  0  0  0  0  0  0  0
  132.1399  137.1478  162.0236 H   0  0  0  0  0  0  0  0  0  0  0  0
  133.0452  139.4123  162.2842 H   0  0  0  0  0  0  0  0  0  0  0  0
  134.7438  138.9668  162.6000 H   0  0  0  0  0  0  0  0  0  0  0  0
  136.1876  141.6922  160.7530 H   0  0  0  0  0  0  0  0  0  0  0  0
  136.2060  140.6573  162.2460 H   0  0  0  0  0  0  0  0  0  0  0  0
  136.4451  138.5810  160.8889 H   0  0  0  0  0  0  0  0  0  0  0  0
  137.1881  139.6980  159.6646 H   0  0  0  0  0  0  0  0  0  0  0  0
  134.8124  137.5597  159.0379 H   0  0  0  0  0  0  0  0  0  0  0  0
  133.2849  138.4809  158.9247 H   0  0  0  0  0  0  0  0  0  0  0  0
  125.4904  137.0050  164.1519 H   0  0  0  0  0  0  0  0  0  0  0  0
  126.7553  138.8392  165.1969 H   0  0  0  0  0  0  0  0  0  0  0  0
  1  2  1  0
  1 36  1  0
  1 37  1  0
  1 38  1  0
  2  3  1  0
  2 39  1  0
  2 40  1  0
  3 35  2  0
  3  4  1  0
  4  5  2  0
  4 41  1  0
  5  6  1  0
  5 42  1  0
  6  7  1  0
  6 34  2  0
  7  8  1  0
  7 43  1  0
  8 33  1  0
  8  9  2  0
  9 10  1  0
  9 44  1  0
 10 11  2  0
 10 45  1  0
 11 12  1  0
 11 33  1  0
 12 17  1  0
 12 13  2  0
 13 14  1  0
 14 15  1  0
 14 16  1  0
 16 17  2  0
 16 46  1  0
 17 18  1  0
 18 19  1  0
 18 47  1  0
 18 48  1  0
 19 20  1  0
 19 21  1  0
 19 22  1  0
 22 23  1  0
 22 49  1  0
 22 50  1  0
 23 24  1  1
 23 32  1  0
 23 25  1  0
 25 26  1  0
 25 51  1  0
 25 52  1  0
 26 27  1  6
 26 30  1  0
 26 28  1  0
 28 29  1  0
 28 53  1  0
 28 54  1  0
 29 30  1  0
 29 55  1  0
 29 56  1  0
 30 31  1  6
 30 32  1  0
 32 57  1  0
 32 58  1  0
 34 35  1  0
 34 59  1  0
 35 60  1  0
M  CHG  1  19   1
M  END
>  <DOCK_score>  (1) 
-47.724632

>  <SMILES>  (1) 
CCc1ccc(Nc2ccc(-c3n[nH]cc3C[NH2+]C[C@@H]3C[C@H]4CC[C@H]4C3)o2)cc1

$$$$
