CNC(=[NH2+])N[C@@H]1C[C@@H]1Nc1ccc2ncc(CNCc3ncccc3Cl)n2c1
     RDKit          3D

 52 55  0  0  1  0  0  0  0  0999 V2000
  130.0022  132.7453  161.8043 C   0  0  0  0  0  0  0  0  0  0  0  0
  130.8226  133.9175  162.1193 N   0  0  0  0  0  0  0  0  0  0  0  0
  131.4589  134.6023  161.1111 C   0  0  0  0  0  0  0  0  0  0  0  0
  131.3322  134.2088  159.8751 N   0  0  0  0  0  0  0  0  0  0  0  0
  130.7889  133.4327  159.6664 H   0  0  0  0  0  0  0  0  0  0  0  0
  131.7811  134.6918  159.1638 H   0  0  0  0  0  0  0  0  0  0  0  0
  132.2288  135.7023  161.4068 N   0  0  0  0  0  0  0  0  0  0  0  0
  132.9070  136.4319  160.3326 C   0  0  2  0  0  0  0  0  0  0  0  0
  133.1954  135.8347  159.4676 H   0  0  0  0  0  0  0  0  0  0  0  0
  133.8293  137.5858  160.7341 C   0  0  0  0  0  0  0  0  0  0  0  0
  132.4772  137.8785  160.0806 C   0  0  2  0  0  0  0  0  0  0  0  0
  132.4827  138.2330  159.0499 H   0  0  0  0  0  0  0  0  0  0  0  0
  131.4193  138.4281  160.9321 N   0  0  0  0  0  0  0  0  0  0  0  0
  130.1529  137.8282  160.9513 C   0  0  0  0  0  0  0  0  0  0  0  0
  129.3663  137.8835  162.1195 C   0  0  0  0  0  0  0  0  0  0  0  0
  128.1387  137.2999  162.1323 C   0  0  0  0  0  0  0  0  0  0  0  0
  127.6696  136.6467  160.9749 C   0  0  0  0  0  0  0  0  0  0  0  0
  126.5386  136.0061  160.7091 N   0  0  0  0  0  0  0  0  0  0  0  0
  126.5719  135.5630  159.4507 C   0  0  0  0  0  0  0  0  0  0  0  0
  127.7538  135.9183  158.8995 C   0  0  0  0  0  0  0  0  0  0  0  0
  128.2124  135.6180  157.4959 C   0  0  0  0  0  0  0  0  0  0  0  0
  128.9227  134.3323  157.4772 N   0  0  0  0  0  0  0  0  0  0  0  0
  129.3855  134.0060  156.1217 C   0  0  0  0  0  0  0  0  0  0  0  0
  130.1077  132.6836  156.1422 C   0  0  0  0  0  0  0  0  0  0  0  0
  130.2271  132.0235  157.2776 N   0  0  0  0  0  0  0  0  0  0  0  0
  130.8547  130.8658  157.3442 C   0  0  0  0  0  0  0  0  0  0  0  0
  131.4104  130.2961  156.2139 C   0  0  0  0  0  0  0  0  0  0  0  0
  131.3013  130.9572  155.0006 C   0  0  0  0  0  0  0  0  0  0  0  0
  130.6334  132.1734  154.9691 C   0  0  0  0  0  0  0  0  0  0  0  0
  130.4665  133.0465  153.4779 Cl  0  0  0  0  0  0  0  0  0  0  0  0
  128.4535  136.6065  159.8524 N   0  0  0  0  0  0  0  0  0  0  0  0
  129.6873  137.1958  159.8468 C   0  0  0  0  0  0  0  0  0  0  0  0
  129.5819  132.3383  162.7238 H   0  0  0  0  0  0  0  0  0  0  0  0
  129.1942  133.0370  161.1333 H   0  0  0  0  0  0  0  0  0  0  0  0
  130.6203  131.9885  161.3211 H   0  0  0  0  0  0  0  0  0  0  0  0
  130.9169  134.2104  163.0392 H   0  0  0  0  0  0  0  0  0  0  0  0
  132.3231  135.9952  162.3267 H   0  0  0  0  0  0  0  0  0  0  0  0
  134.7242  137.7469  160.1331 H   0  0  0  0  0  0  0  0  0  0  0  0
  133.9318  137.8022  161.7974 H   0  0  0  0  0  0  0  0  0  0  0  0
  131.5953  139.2071  161.4824 H   0  0  0  0  0  0  0  0  0  0  0  0
  129.7373  138.3867  163.0001 H   0  0  0  0  0  0  0  0  0  0  0  0
  127.5278  137.3364  163.0222 H   0  0  0  0  0  0  0  0  0  0  0  0
  125.7869  135.0099  158.9563 H   0  0  0  0  0  0  0  0  0  0  0  0
  128.8820  136.4079  157.1556 H   0  0  0  0  0  0  0  0  0  0  0  0
  127.3475  135.5650  156.8345 H   0  0  0  0  0  0  0  0  0  0  0  0
  128.3440  133.5942  157.8492 H   0  0  0  0  0  0  0  0  0  0  0  0
  130.0630  134.7848  155.7719 H   0  0  0  0  0  0  0  0  0  0  0  0
  128.5286  133.9417  155.4510 H   0  0  0  0  0  0  0  0  0  0  0  0
  130.9356  130.3567  158.2931 H   0  0  0  0  0  0  0  0  0  0  0  0
  131.9236  129.3479  156.2757 H   0  0  0  0  0  0  0  0  0  0  0  0
  131.7254  130.5359  154.1012 H   0  0  0  0  0  0  0  0  0  0  0  0
  130.2957  137.1568  158.9552 H   0  0  0  0  0  0  0  0  0  0  0  0
  1  2  1  0
  1 33  1  0
  1 34  1  0
  1 35  1  0
  2  3  1  0
  2 36  1  0
  3  4  2  0
  3  7  1  0
  4  5  1  0
  4  6  1  0
  7  8  1  0
  7 37  1  0
  8  9  1  6
  8 11  1  0
  8 10  1  0
 10 11  1  0
 10 38  1  0
 10 39  1  0
 11 12  1  6
 11 13  1  0
 13 14  1  0
 13 40  1  0
 14 32  2  0
 14 15  1  0
 15 16  2  0
 15 41  1  0
 16 17  1  0
 16 42  1  0
 17 31  1  0
 17 18  2  0
 18 19  1  0
 19 20  2  0
 19 43  1  0
 20 21  1  0
 20 31  1  0
 21 22  1  0
 21 44  1  0
 21 45  1  0
 22 23  1  0
 22 46  1  0
 23 24  1  0
 23 47  1  0
 23 48  1  0
 24 29  1  0
 24 25  2  0
 25 26  1  0
 26 27  2  0
 26 49  1  0
 27 28  1  0
 27 50  1  0
 28 29  2  0
 28 51  1  0
 29 30  1  0
 31 32  1  0
 32 52  1  0
M  CHG  1   4   1
M  END
>  <DOCK_score>  (1) 
-49.258728

>  <SMILES>  (1) 
CNC(=[NH2+])N[C@@H]1C[C@@H]1Nc1ccc2ncc(CNCc3ncccc3Cl)n2c1

$$$$
