CCc1ccc(-c2c[nH]c(N[C@@H](Cc3cnnn3C)c3ccc4c(c3)CC(=O)C4)[nH+]2)cc1
     RDKit          3D

 59 63  0  0  1  0  0  0  0  0999 V2000
  130.1640  128.7216  151.5779 C   0  0  0  0  0  0  0  0  0  0  0  0
  131.2673  129.7146  151.9485 C   0  0  0  0  0  0  0  0  0  0  0  0
  130.8900  130.4340  153.2178 C   0  0  0  0  0  0  0  0  0  0  0  0
  131.2662  129.9137  154.4425 C   0  0  0  0  0  0  0  0  0  0  0  0
  130.9276  130.5708  155.6079 C   0  0  0  0  0  0  0  0  0  0  0  0
  130.1960  131.7556  155.5495 C   0  0  0  0  0  0  0  0  0  0  0  0
  129.8247  132.4637  156.7988 C   0  0  0  0  0  0  0  0  0  0  0  0
  129.0750  131.9587  157.8097 C   0  0  0  0  0  0  0  0  0  0  0  0
  128.9774  132.9425  158.7635 N   0  0  0  0  0  0  0  0  0  0  0  0
  128.5016  132.8802  159.6066 H   0  0  0  0  0  0  0  0  0  0  0  0
  129.6710  134.0209  158.3072 C   0  0  0  0  0  0  0  0  0  0  0  0
  129.8183  135.2256  158.9731 N   0  0  0  0  0  0  0  0  0  0  0  0
  129.8163  135.2579  160.4378 C   0  0  1  0  0  0  0  0  0  0  0  0
  129.0631  134.5665  160.8154 H   0  0  0  0  0  0  0  0  0  0  0  0
  131.1943  134.8451  160.9589 C   0  0  0  0  0  0  0  0  0  0  0  0
  131.5121  133.4494  160.4876 C   0  0  0  0  0  0  0  0  0  0  0  0
  132.1477  133.1025  159.3441 C   0  0  0  0  0  0  0  0  0  0  0  0
  132.2127  131.7663  159.3360 N   0  0  0  0  0  0  0  0  0  0  0  0
  131.6543  131.3157  160.4036 N   0  0  0  0  0  0  0  0  0  0  0  0
  131.2247  132.2911  161.1254 N   0  0  0  0  0  0  0  0  0  0  0  0
  130.5392  132.1682  162.4142 C   0  0  0  0  0  0  0  0  0  0  0  0
  129.4986  136.6536  160.9091 C   0  0  0  0  0  0  0  0  0  0  0  0
  128.3862  136.8815  161.6975 C   0  0  0  0  0  0  0  0  0  0  0  0
  128.0979  138.1612  162.1281 C   0  0  0  0  0  0  0  0  0  0  0  0
  128.9206  139.2193  161.7729 C   0  0  0  0  0  0  0  0  0  0  0  0
  130.0302  138.9921  160.9863 C   0  0  0  0  0  0  0  0  0  0  0  0
  130.3213  137.7056  160.5585 C   0  0  0  0  0  0  0  0  0  0  0  0
  130.7583  140.2903  160.7383 C   0  0  0  0  0  0  0  0  0  0  0  0
  129.9929  141.3781  161.4531 C   0  0  0  0  0  0  0  0  0  0  0  0
  130.2607  142.5552  161.4908 O   0  0  0  0  0  0  0  0  0  0  0  0
  128.8223  140.6868  162.1104 C   0  0  0  0  0  0  0  0  0  0  0  0
  130.1800  133.7292  157.1352 N   0  0  0  0  0  0  0  0  0  0  0  0
  130.7227  134.3238  156.5939 H   0  0  0  0  0  0  0  0  0  0  0  0
  129.8150  132.2729  154.3127 C   0  0  0  0  0  0  0  0  0  0  0  0
  130.1636  131.6100  153.1535 C   0  0  0  0  0  0  0  0  0  0  0  0
  130.4370  128.2012  150.6598 H   0  0  0  0  0  0  0  0  0  0  0  0
  130.0419  127.9974  152.3834 H   0  0  0  0  0  0  0  0  0  0  0  0
  129.2275  129.2583  151.4267 H   0  0  0  0  0  0  0  0  0  0  0  0
  132.2038  129.1783  152.0994 H   0  0  0  0  0  0  0  0  0  0  0  0
  131.3893  130.4393  151.1427 H   0  0  0  0  0  0  0  0  0  0  0  0
  131.8294  128.9932  154.4869 H   0  0  0  0  0  0  0  0  0  0  0  0
  131.2259  130.1657  156.5637 H   0  0  0  0  0  0  0  0  0  0  0  0
  128.6380  130.9722  157.8559 H   0  0  0  0  0  0  0  0  0  0  0  0
  129.9228  136.0483  158.4701 H   0  0  0  0  0  0  0  0  0  0  0  0
  131.9476  135.5363  160.5812 H   0  0  0  0  0  0  0  0  0  0  0  0
  131.1929  134.8691  162.0486 H   0  0  0  0  0  0  0  0  0  0  0  0
  132.5279  133.7726  158.5873 H   0  0  0  0  0  0  0  0  0  0  0  0
  129.4644  132.0950  162.2486 H   0  0  0  0  0  0  0  0  0  0  0  0
  130.8894  131.2729  162.9282 H   0  0  0  0  0  0  0  0  0  0  0  0
  130.7538  133.0451  163.0251 H   0  0  0  0  0  0  0  0  0  0  0  0
  127.7432  136.0596  161.9761 H   0  0  0  0  0  0  0  0  0  0  0  0
  127.2287  138.3388  162.7442 H   0  0  0  0  0  0  0  0  0  0  0  0
  131.1926  137.5263  159.9462 H   0  0  0  0  0  0  0  0  0  0  0  0
  130.7885  140.4997  159.6689 H   0  0  0  0  0  0  0  0  0  0  0  0
  131.7717  140.2284  161.1345 H   0  0  0  0  0  0  0  0  0  0  0  0
  127.8875  141.0939  161.7252 H   0  0  0  0  0  0  0  0  0  0  0  0
  128.8708  140.8226  163.1908 H   0  0  0  0  0  0  0  0  0  0  0  0
  129.2477  133.1904  154.2614 H   0  0  0  0  0  0  0  0  0  0  0  0
  129.8685  132.0097  152.1945 H   0  0  0  0  0  0  0  0  0  0  0  0
  1  2  1  0
  1 36  1  0
  1 37  1  0
  1 38  1  0
  2  3  1  0
  2 39  1  0
  2 40  1  0
  3 35  2  0
  3  4  1  0
  4  5  2  0
  4 41  1  0
  5  6  1  0
  5 42  1  0
  6  7  1  0
  6 34  2  0
  7 32  1  0
  7  8  2  0
  8  9  1  0
  8 43  1  0
  9 10  1  0
  9 11  1  0
 11 12  1  0
 11 32  2  0
 12 13  1  0
 12 44  1  0
 13 14  1  1
 13 15  1  0
 13 22  1  0
 15 16  1  0
 15 45  1  0
 15 46  1  0
 16 20  1  0
 16 17  2  0
 17 18  1  0
 17 47  1  0
 18 19  2  0
 19 20  1  0
 20 21  1  0
 21 48  1  0
 21 49  1  0
 21 50  1  0
 22 27  1  0
 22 23  2  0
 23 24  1  0
 23 51  1  0
 24 25  2  0
 24 52  1  0
 25 31  1  0
 25 26  1  0
 26 27  2  0
 26 28  1  0
 27 53  1  0
 28 29  1  0
 28 54  1  0
 28 55  1  0
 29 30  2  0
 29 31  1  0
 31 56  1  0
 31 57  1  0
 32 33  1  0
 34 35  1  0
 34 58  1  0
 35 59  1  0
M  CHG  1  32   1
M  END
>  <DOCK_score>  (1) 
-59.634331

>  <SMILES>  (1) 
CCc1ccc(-c2c[nH]c(N[C@@H](Cc3cnnn3C)c3ccc4c(c3)CC(=O)C4)[nH+]2)cc1

$$$$
