O=C(c1c[nH]nc1[C@H]1CCC[NH2+]C1)N1CCCC1Cc1cccc2ccccc12
     RDKit          3D

 58 62  0  0  1  0  0  0  0  0999 V2000
  130.9213  135.7702  161.6702 O   0  0  0  0  0  0  0  0  0  0  0  0
  130.1407  136.5585  161.1723 C   0  0  0  0  0  0  0  0  0  0  0  0
  128.7659  136.1324  160.8532 C   0  0  0  0  0  0  0  0  0  0  0  0
  127.6019  136.6700  161.3649 C   0  0  0  0  0  0  0  0  0  0  0  0
  126.5752  136.0004  160.8168 N   0  0  0  0  0  0  0  0  0  0  0  0
  125.6349  136.1634  160.9906 H   0  0  0  0  0  0  0  0  0  0  0  0
  127.0906  135.0239  159.9572 N   0  0  0  0  0  0  0  0  0  0  0  0
  128.3931  135.0935  159.9711 C   0  0  0  0  0  0  0  0  0  0  0  0
  129.3352  134.2197  159.1838 C   0  0  1  0  0  0  0  0  0  0  0  0
  130.2709  134.1072  159.7314 H   0  0  0  0  0  0  0  0  0  0  0  0
  128.6986  132.8431  158.9711 C   0  0  0  0  0  0  0  0  0  0  0  0
  129.6290  131.9898  158.1044 C   0  0  0  0  0  0  0  0  0  0  0  0
  129.8953  132.7158  156.7839 C   0  0  0  0  0  0  0  0  0  0  0  0
  130.5280  134.0126  157.0534 N   0  0  0  0  0  0  0  0  0  0  0  0
  131.3759  133.8688  157.5811 H   0  0  0  0  0  0  0  0  0  0  0  0
  130.7497  134.4656  156.1794 H   0  0  0  0  0  0  0  0  0  0  0  0
  129.6124  134.8630  157.8234 C   0  0  0  0  0  0  0  0  0  0  0  0
  130.5324  137.8215  160.9124 N   0  0  0  0  0  0  0  0  0  0  0  0
  129.6929  138.8754  160.3135 C   0  0  0  0  0  0  0  0  0  0  0  0
  130.3304  140.2059  160.7855 C   0  0  0  0  0  0  0  0  0  0  0  0
  131.8421  139.8582  160.7471 C   0  0  0  0  0  0  0  0  0  0  0  0
  131.8670  138.3772  161.1797 C   0  0  2  0  0  0  0  0  0  0  0  0
  132.9191  137.6162  160.3705 C   0  0  0  0  0  0  0  0  0  0  0  0
  134.2814  137.8519  160.9702 C   0  0  0  0  0  0  0  0  0  0  0  0
  135.0415  138.9005  160.5509 C   0  0  0  0  0  0  0  0  0  0  0  0
  136.3028  139.1349  161.0944 C   0  0  0  0  0  0  0  0  0  0  0  0
  136.8121  138.3216  162.0599 C   0  0  0  0  0  0  0  0  0  0  0  0
  136.0570  137.2287  162.5178 C   0  0  0  0  0  0  0  0  0  0  0  0
  136.5494  136.3668  163.5128 C   0  0  0  0  0  0  0  0  0  0  0  0
  135.7898  135.3181  163.9312 C   0  0  0  0  0  0  0  0  0  0  0  0
  134.5278  135.0840  163.3880 C   0  0  0  0  0  0  0  0  0  0  0  0
  134.0186  135.8970  162.4227 C   0  0  0  0  0  0  0  0  0  0  0  0
  134.7714  136.9939  161.9690 C   0  0  0  0  0  0  0  0  0  0  0  0
  127.5302  137.4817  162.0736 H   0  0  0  0  0  0  0  0  0  0  0  0
  128.5510  132.3569  159.9354 H   0  0  0  0  0  0  0  0  0  0  0  0
  127.7372  132.9595  158.4707 H   0  0  0  0  0  0  0  0  0  0  0  0
  130.5712  131.8310  158.6289 H   0  0  0  0  0  0  0  0  0  0  0  0
  129.1579  131.0277  157.9029 H   0  0  0  0  0  0  0  0  0  0  0  0
  130.5573  132.1109  156.1643 H   0  0  0  0  0  0  0  0  0  0  0  0
  128.9525  132.8742  156.2603 H   0  0  0  0  0  0  0  0  0  0  0  0
  128.6756  134.9752  157.2774 H   0  0  0  0  0  0  0  0  0  0  0  0
  130.0655  135.8433  157.9711 H   0  0  0  0  0  0  0  0  0  0  0  0
  128.6681  138.7960  160.6764 H   0  0  0  0  0  0  0  0  0  0  0  0
  129.7158  138.8085  159.2259 H   0  0  0  0  0  0  0  0  0  0  0  0
  130.0122  140.4541  161.7981 H   0  0  0  0  0  0  0  0  0  0  0  0
  130.0985  141.0173  160.0956 H   0  0  0  0  0  0  0  0  0  0  0  0
  132.2383  139.9719  159.7379 H   0  0  0  0  0  0  0  0  0  0  0  0
  132.3978  140.4756  161.4526 H   0  0  0  0  0  0  0  0  0  0  0  0
  132.0919  138.3056  162.2439 H   0  0  0  0  0  0  0  0  0  0  0  0
  132.6925  136.5503  160.3912 H   0  0  0  0  0  0  0  0  0  0  0  0
  132.9100  137.9697  159.3394 H   0  0  0  0  0  0  0  0  0  0  0  0
  134.6608  139.5610  159.7859 H   0  0  0  0  0  0  0  0  0  0  0  0
  136.8853  139.9739  160.7440 H   0  0  0  0  0  0  0  0  0  0  0  0
  137.7916  138.5152  162.4718 H   0  0  0  0  0  0  0  0  0  0  0  0
  137.5255  136.5358  163.9428 H   0  0  0  0  0  0  0  0  0  0  0  0
  136.1706  134.6573  164.6959 H   0  0  0  0  0  0  0  0  0  0  0  0
  133.9453  134.2447  163.7383 H   0  0  0  0  0  0  0  0  0  0  0  0
  133.0394  135.7029  162.0105 H   0  0  0  0  0  0  0  0  0  0  0  0
  1  2  2  0
  2  3  1  0
  2 18  1  0
  3  8  1  0
  3  4  2  0
  4  5  1  0
  4 34  1  0
  5  6  1  0
  5  7  1  0
  7  8  2  0
  8  9  1  0
  9 10  1  1
  9 17  1  0
  9 11  1  0
 11 12  1  0
 11 35  1  0
 11 36  1  0
 12 13  1  0
 12 37  1  0
 12 38  1  0
 13 14  1  0
 13 39  1  0
 13 40  1  0
 14 15  1  0
 14 16  1  0
 14 17  1  0
 17 41  1  0
 17 42  1  0
 18 22  1  0
 18 19  1  0
 19 20  1  0
 19 43  1  0
 19 44  1  0
 20 21  1  0
 20 45  1  0
 20 46  1  0
 21 22  1  0
 21 47  1  0
 21 48  1  0
 22 23  1  0
 22 49  1  1
 23 24  1  0
 23 50  1  0
 23 51  1  0
 24 33  1  0
 24 25  2  0
 25 26  1  0
 25 52  1  0
 26 27  2  0
 26 53  1  0
 27 28  1  0
 27 54  1  0
 28 33  2  0
 28 29  1  0
 29 30  2  0
 29 55  1  0
 30 31  1  0
 30 56  1  0
 31 32  2  0
 31 57  1  0
 32 33  1  0
 32 58  1  0
M  CHG  1  14   1
M  END
>  <DOCK_score>  (1) 
-42.473179

>  <SMILES>  (1) 
O=C(c1c[nH]nc1[C@H]1CCC[NH2+]C1)N1CCCC1Cc1cccc2ccccc12

$$$$
