[NH3+][C@H](CCC1=CCC=C[C@H]1CCc1ccc(O)c(F)c1)C(=O)Nc1cccc(O)c1
     RDKit          3D

 58 60  0  0  1  0  0  0  0  0999 V2000
  131.2984  133.7771  157.6656 N   0  0  0  0  0  0  0  0  0  0  0  0
  131.4699  132.7905  157.7895 H   0  0  0  0  0  0  0  0  0  0  0  0
  130.6540  133.9130  156.9011 H   0  0  0  0  0  0  0  0  0  0  0  0
  132.1677  134.2464  157.4603 H   0  0  0  0  0  0  0  0  0  0  0  0
  130.7212  134.3323  158.8971 C   0  0  2  0  0  0  0  0  0  0  0  0
  130.5360  135.3980  158.7632 H   0  0  0  0  0  0  0  0  0  0  0  0
  131.6984  134.1262  160.0562 C   0  0  0  0  0  0  0  0  0  0  0  0
  131.0972  134.7045  161.3390 C   0  0  0  0  0  0  0  0  0  0  0  0
  130.8411  136.1781  161.1538 C   0  0  0  0  0  0  0  0  0  0  0  0
  129.6251  136.6168  161.2742 C   0  0  0  0  0  0  0  0  0  0  0  0
  129.2626  138.0621  161.1102 C   0  0  0  0  0  0  0  0  0  0  0  0
  130.3237  138.8047  160.3551 C   0  0  0  0  0  0  0  0  0  0  0  0
  131.5396  138.3659  160.2343 C   0  0  0  0  0  0  0  0  0  0  0  0
  131.9994  137.0706  160.8331 C   0  0  1  0  0  0  0  0  0  0  0  0
  132.6583  136.5648  160.1272 H   0  0  0  0  0  0  0  0  0  0  0  0
  132.7737  137.3601  162.1206 C   0  0  0  0  0  0  0  0  0  0  0  0
  134.1882  137.8269  161.7710 C   0  0  0  0  0  0  0  0  0  0  0  0
  134.9507  138.1120  163.0392 C   0  0  0  0  0  0  0  0  0  0  0  0
  134.9187  139.3781  163.5939 C   0  0  0  0  0  0  0  0  0  0  0  0
  135.6127  139.6419  164.7592 C   0  0  0  0  0  0  0  0  0  0  0  0
  136.3512  138.6384  165.3678 C   0  0  0  0  0  0  0  0  0  0  0  0
  137.0393  138.8973  166.5114 O   0  0  0  0  0  0  0  0  0  0  0  0
  136.3867  137.3683  164.8066 C   0  0  0  0  0  0  0  0  0  0  0  0
  137.1055  136.3881  165.3966 F   0  0  0  0  0  0  0  0  0  0  0  0
  135.6857  137.1086  163.6428 C   0  0  0  0  0  0  0  0  0  0  0  0
  129.4229  133.6313  159.2039 C   0  0  0  0  0  0  0  0  0  0  0  0
  129.4098  132.4327  159.3885 O   0  0  0  0  0  0  0  0  0  0  0  0
  128.2764  134.3364  159.2729 N   0  0  0  0  0  0  0  0  0  0  0  0
  127.0709  133.6855  159.5576 C   0  0  0  0  0  0  0  0  0  0  0  0
  126.8841  132.3654  159.1671 C   0  0  0  0  0  0  0  0  0  0  0  0
  125.6965  131.7210  159.4536 C   0  0  0  0  0  0  0  0  0  0  0  0
  124.6867  132.3909  160.1181 C   0  0  0  0  0  0  0  0  0  0  0  0
  124.8654  133.7114  160.5055 C   0  0  0  0  0  0  0  0  0  0  0  0
  123.8717  134.3688  161.1588 O   0  0  0  0  0  0  0  0  0  0  0  0
  126.0583  134.3595  160.2253 C   0  0  0  0  0  0  0  0  0  0  0  0
  132.6375  134.6333  159.8344 H   0  0  0  0  0  0  0  0  0  0  0  0
  131.8838  133.0605  160.1901 H   0  0  0  0  0  0  0  0  0  0  0  0
  131.7934  134.5577  162.1647 H   0  0  0  0  0  0  0  0  0  0  0  0
  130.1582  134.1974  161.5608 H   0  0  0  0  0  0  0  0  0  0  0  0
  128.8410  135.9102  161.5025 H   0  0  0  0  0  0  0  0  0  0  0  0
  129.1420  138.5142  162.0946 H   0  0  0  0  0  0  0  0  0  0  0  0
  128.3204  138.1348  160.5669 H   0  0  0  0  0  0  0  0  0  0  0  0
  130.0656  139.7453  159.8914 H   0  0  0  0  0  0  0  0  0  0  0  0
  132.2492  138.9572  159.6747 H   0  0  0  0  0  0  0  0  0  0  0  0
  132.2624  138.1405  162.6843 H   0  0  0  0  0  0  0  0  0  0  0  0
  132.8287  136.4535  162.7231 H   0  0  0  0  0  0  0  0  0  0  0  0
  134.6994  137.0466  161.2073 H   0  0  0  0  0  0  0  0  0  0  0  0
  134.1331  138.7336  161.1686 H   0  0  0  0  0  0  0  0  0  0  0  0
  134.3469  140.1610  163.1177 H   0  0  0  0  0  0  0  0  0  0  0  0
  135.5835  140.6303  165.1935 H   0  0  0  0  0  0  0  0  0  0  0  0
  136.9536  139.8083  166.8244 H   0  0  0  0  0  0  0  0  0  0  0  0
  135.7128  136.1215  163.2053 H   0  0  0  0  0  0  0  0  0  0  0  0
  128.2869  135.2950  159.1252 H   0  0  0  0  0  0  0  0  0  0  0  0
  127.6699  131.8411  158.6434 H   0  0  0  0  0  0  0  0  0  0  0  0
  125.5549  130.6932  159.1535 H   0  0  0  0  0  0  0  0  0  0  0  0
  123.7573  131.8860  160.3364 H   0  0  0  0  0  0  0  0  0  0  0  0
  124.0887  135.2831  161.3873 H   0  0  0  0  0  0  0  0  0  0  0  0
  126.1995  135.3871  160.5263 H   0  0  0  0  0  0  0  0  0  0  0  0
  1  2  1  0
  1  3  1  0
  1  4  1  0
  1  5  1  0
  5  6  1  6
  5  7  1  0
  5 26  1  0
  7  8  1  0
  7 36  1  0
  7 37  1  0
  8  9  1  0
  8 38  1  0
  8 39  1  0
  9 14  1  0
  9 10  2  0
 10 11  1  0
 10 40  1  0
 11 12  1  0
 11 41  1  0
 11 42  1  0
 12 13  2  0
 12 43  1  0
 13 14  1  0
 13 44  1  0
 14 15  1  6
 14 16  1  0
 16 17  1  0
 16 45  1  0
 16 46  1  0
 17 18  1  0
 17 47  1  0
 17 48  1  0
 18 25  1  0
 18 19  2  0
 19 20  1  0
 19 49  1  0
 20 21  2  0
 20 50  1  0
 21 22  1  0
 21 23  1  0
 22 51  1  0
 23 24  1  0
 23 25  2  0
 25 52  1  0
 26 27  2  0
 26 28  1  0
 28 29  1  0
 28 53  1  0
 29 35  1  0
 29 30  2  0
 30 31  1  0
 30 54  1  0
 31 32  2  0
 31 55  1  0
 32 33  1  0
 32 56  1  0
 33 34  1  0
 33 35  2  0
 34 57  1  0
 35 58  1  0
M  CHG  1   1   1
M  END
>  <DOCK_score>  (1) 
-43.371891

>  <SMILES>  (1) 
[NH3+][C@H](CCC1=CCC=C[C@H]1CCc1ccc(O)c(F)c1)C(=O)Nc1cccc(O)c1

$$$$
