C=CC=CCCc1cc(N[C@@H](C)c2cccc(O)c2)cc[nH+]1
     RDKit          3D

 45 46  0  0  1  0  0  0  0  0999 V2000
  130.6603  129.1517  151.8472 C   0  0  0  0  0  0  0  0  0  0  0  0
  131.1555  129.1428  153.0802 C   0  0  0  0  0  0  0  0  0  0  0  0
  130.9803  130.3150  153.9517 C   0  0  0  0  0  0  0  0  0  0  0  0
  131.4754  130.3061  155.1846 C   0  0  0  0  0  0  0  0  0  0  0  0
  131.2960  131.5067  156.0775 C   0  0  0  0  0  0  0  0  0  0  0  0
  129.8029  131.7725  156.2808 C   0  0  0  0  0  0  0  0  0  0  0  0
  129.6235  132.9731  157.1737 C   0  0  0  0  0  0  0  0  0  0  0  0
  129.5459  132.8001  158.5397 C   0  0  0  0  0  0  0  0  0  0  0  0
  129.3799  133.9185  159.3560 C   0  0  0  0  0  0  0  0  0  0  0  0
  129.2970  133.7871  160.7390 N   0  0  0  0  0  0  0  0  0  0  0  0
  128.7368  132.5676  161.3265 C   0  0  1  0  0  0  0  0  0  0  0  0
  129.3308  131.7083  161.0155 H   0  0  0  0  0  0  0  0  0  0  0  0
  128.7610  132.6789  162.8523 C   0  0  0  0  0  0  0  0  0  0  0  0
  127.3152  132.3916  160.8584 C   0  0  0  0  0  0  0  0  0  0  0  0
  126.9563  131.2599  160.1493 C   0  0  0  0  0  0  0  0  0  0  0  0
  125.6544  131.0983  159.7136 C   0  0  0  0  0  0  0  0  0  0  0  0
  124.7069  132.0652  159.9901 C   0  0  0  0  0  0  0  0  0  0  0  0
  125.0633  133.1988  160.7057 C   0  0  0  0  0  0  0  0  0  0  0  0
  124.1333  134.1517  160.9785 O   0  0  0  0  0  0  0  0  0  0  0  0
  126.3707  133.3587  161.1420 C   0  0  0  0  0  0  0  0  0  0  0  0
  129.2933  135.1719  158.7497 C   0  0  0  0  0  0  0  0  0  0  0  0
  129.3856  135.2597  157.3769 C   0  0  0  0  0  0  0  0  0  0  0  0
  129.5423  134.1768  156.6384 N   0  0  0  0  0  0  0  0  0  0  0  0
  129.5998  134.2684  155.6745 H   0  0  0  0  0  0  0  0  0  0  0  0
  130.1291  130.0195  151.4849 H   0  0  0  0  0  0  0  0  0  0  0  0
  130.7890  128.2912  151.2073 H   0  0  0  0  0  0  0  0  0  0  0  0
  131.6868  128.2751  153.4423 H   0  0  0  0  0  0  0  0  0  0  0  0
  130.4490  131.1827  153.5894 H   0  0  0  0  0  0  0  0  0  0  0  0
  132.0067  129.4383  155.5470 H   0  0  0  0  0  0  0  0  0  0  0  0
  131.7599  132.3771  155.6136 H   0  0  0  0  0  0  0  0  0  0  0  0
  131.7657  131.3156  157.0423 H   0  0  0  0  0  0  0  0  0  0  0  0
  129.3390  130.9020  156.7447 H   0  0  0  0  0  0  0  0  0  0  0  0
  129.3332  131.9637  155.3160 H   0  0  0  0  0  0  0  0  0  0  0  0
  129.6131  131.8123  158.9713 H   0  0  0  0  0  0  0  0  0  0  0  0
  129.6101  134.5029  161.3139 H   0  0  0  0  0  0  0  0  0  0  0  0
  129.7892  132.8062  163.1909 H   0  0  0  0  0  0  0  0  0  0  0  0
  128.1670  133.5382  163.1635 H   0  0  0  0  0  0  0  0  0  0  0  0
  128.3442  131.7716  163.2894 H   0  0  0  0  0  0  0  0  0  0  0  0
  127.6953  130.5029  159.9322 H   0  0  0  0  0  0  0  0  0  0  0  0
  125.3775  130.2155  159.1563 H   0  0  0  0  0  0  0  0  0  0  0  0
  123.6901  131.9387  159.6493 H   0  0  0  0  0  0  0  0  0  0  0  0
  124.4760  134.9032  161.4813 H   0  0  0  0  0  0  0  0  0  0  0  0
  126.6506  134.2407  161.6988 H   0  0  0  0  0  0  0  0  0  0  0  0
  129.1602  136.0614  159.3477 H   0  0  0  0  0  0  0  0  0  0  0  0
  129.3240  136.2264  156.8992 H   0  0  0  0  0  0  0  0  0  0  0  0
  1  2  2  0
  1 25  1  0
  1 26  1  0
  2  3  1  0
  2 27  1  0
  3  4  2  0
  3 28  1  0
  4  5  1  0
  4 29  1  0
  5  6  1  0
  5 30  1  0
  5 31  1  0
  6 32  1  0
  6 33  1  0
  7  6  1  0
  7 23  2  0
  7  8  1  0
  8  9  2  0
  8 34  1  0
  9 10  1  0
  9 21  1  0
 10 11  1  0
 10 35  1  0
 11 12  1  1
 11 13  1  0
 11 14  1  0
 13 36  1  0
 13 37  1  0
 13 38  1  0
 14 20  1  0
 14 15  2  0
 15 16  1  0
 15 39  1  0
 16 17  2  0
 16 40  1  0
 17 18  1  0
 17 41  1  0
 18 19  1  0
 18 20  2  0
 19 42  1  0
 20 43  1  0
 21 22  2  0
 21 44  1  0
 22 23  1  0
 22 45  1  0
 23 24  1  0
M  CHG  1  23   1
M  END
>  <DOCK_score>  (1) 
-42.313549

>  <SMILES>  (1) 
C=CC=CCCc1cc(N[C@@H](C)c2cccc(O)c2)cc[nH+]1

$$$$
