c1cc(Nc2cccs2)cc(-c2cccc(NC3CC[NH+]4CCCC[C@@H]34)c2)c1
     RDKit          3D

 56 60  0  0  1  0  0  0  0  0999 V2000
  137.6180  134.5976  163.3319 C   0  0  0  0  0  0  0  0  0  0  0  0
  138.3602  135.5147  164.0516 C   0  0  0  0  0  0  0  0  0  0  0  0
  137.7863  136.7145  164.4559 C   0  0  0  0  0  0  0  0  0  0  0  0
  138.5393  137.6392  165.1831 N   0  0  0  0  0  0  0  0  0  0  0  0
  139.0815  137.2803  166.4186 C   0  0  0  0  0  0  0  0  0  0  0  0
  139.8231  138.0797  167.1997 C   0  0  0  0  0  0  0  0  0  0  0  0
  140.2467  137.5007  168.3850 C   0  0  0  0  0  0  0  0  0  0  0  0
  139.8622  136.2373  168.5631 C   0  0  0  0  0  0  0  0  0  0  0  0
  138.9036  135.7082  167.1869 S   0  0  0  0  0  0  0  0  0  0  0  0
  136.4650  136.9931  164.1361 C   0  0  0  0  0  0  0  0  0  0  0  0
  135.7191  136.0686  163.4108 C   0  0  0  0  0  0  0  0  0  0  0  0
  134.3056  136.3602  163.0654 C   0  0  0  0  0  0  0  0  0  0  0  0
  133.5314  137.1589  163.9056 C   0  0  0  0  0  0  0  0  0  0  0  0
  132.2166  137.4290  163.5835 C   0  0  0  0  0  0  0  0  0  0  0  0
  131.6630  136.9096  162.4284 C   0  0  0  0  0  0  0  0  0  0  0  0
  132.4273  136.1124  161.5849 C   0  0  0  0  0  0  0  0  0  0  0  0
  131.8646  135.5895  160.4182 N   0  0  0  0  0  0  0  0  0  0  0  0
  130.4315  135.2900  160.3665 C   0  0  1  0  0  0  0  0  0  0  0  0
  129.6507  136.4769  159.7457 C   0  0  0  0  0  0  0  0  0  0  0  0
  129.0430  135.9125  158.4337 C   0  0  0  0  0  0  0  0  0  0  0  0
  129.9336  134.7900  158.0988 N   0  0  2  0  0  0  0  0  0  0  0  0
  130.8052  135.1418  157.7318 H   0  0  0  0  0  0  0  0  0  0  0  0
  129.3737  133.8031  157.1850 C   0  0  0  0  0  0  0  0  0  0  0  0
  130.4530  132.7425  156.9203 C   0  0  0  0  0  0  0  0  0  0  0  0
  130.9088  132.0945  158.2272 C   0  0  0  0  0  0  0  0  0  0  0  0
  131.3319  133.1677  159.2432 C   0  0  0  0  0  0  0  0  0  0  0  0
  130.1610  134.1248  159.4097 C   0  0  1  0  0  0  0  0  0  0  0  0
  129.2631  133.5891  159.7180 H   0  0  0  0  0  0  0  0  0  0  0  0
  133.7494  135.8365  161.9019 C   0  0  0  0  0  0  0  0  0  0  0  0
  136.3013  134.8656  163.0145 C   0  0  0  0  0  0  0  0  0  0  0  0
  138.0681  133.6665  163.0206 H   0  0  0  0  0  0  0  0  0  0  0  0
  139.3887  135.2985  164.3007 H   0  0  0  0  0  0  0  0  0  0  0  0
  138.6856  138.5305  164.8296 H   0  0  0  0  0  0  0  0  0  0  0  0
  140.0681  139.0956  166.9277 H   0  0  0  0  0  0  0  0  0  0  0  0
  140.8475  138.0320  169.1082 H   0  0  0  0  0  0  0  0  0  0  0  0
  140.1025  135.6300  169.4232 H   0  0  0  0  0  0  0  0  0  0  0  0
  136.0168  137.9244  164.4494 H   0  0  0  0  0  0  0  0  0  0  0  0
  133.9605  137.5667  164.8088 H   0  0  0  0  0  0  0  0  0  0  0  0
  131.6200  138.0516  164.2335 H   0  0  0  0  0  0  0  0  0  0  0  0
  130.6337  137.1235  162.1810 H   0  0  0  0  0  0  0  0  0  0  0  0
  132.4229  135.4246  159.6421 H   0  0  0  0  0  0  0  0  0  0  0  0
  130.0534  135.0638  161.3634 H   0  0  0  0  0  0  0  0  0  0  0  0
  128.8592  136.8041  160.4201 H   0  0  0  0  0  0  0  0  0  0  0  0
  130.3273  137.3031  159.5274 H   0  0  0  0  0  0  0  0  0  0  0  0
  128.0260  135.5584  158.6027 H   0  0  0  0  0  0  0  0  0  0  0  0
  129.0623  136.6660  157.6463 H   0  0  0  0  0  0  0  0  0  0  0  0
  128.4995  133.3351  157.6377 H   0  0  0  0  0  0  0  0  0  0  0  0
  129.0920  134.2848  156.2487 H   0  0  0  0  0  0  0  0  0  0  0  0
  130.0474  131.9746  156.2616 H   0  0  0  0  0  0  0  0  0  0  0  0
  131.3083  133.2140  156.4364 H   0  0  0  0  0  0  0  0  0  0  0  0
  130.0889  131.5089  158.6432 H   0  0  0  0  0  0  0  0  0  0  0  0
  131.7546  131.4368  158.0266 H   0  0  0  0  0  0  0  0  0  0  0  0
  131.5670  132.7002  160.1994 H   0  0  0  0  0  0  0  0  0  0  0  0
  132.2026  133.7074  158.8708 H   0  0  0  0  0  0  0  0  0  0  0  0
  134.3451  135.2169  161.2480 H   0  0  0  0  0  0  0  0  0  0  0  0
  135.7233  134.1444  162.4559 H   0  0  0  0  0  0  0  0  0  0  0  0
  1 30  2  0
  1  2  1  0
  1 31  1  0
  2  3  2  0
  2 32  1  0
  3  4  1  0
  3 10  1  0
  4  5  1  0
  4 33  1  0
  5  9  1  0
  5  6  2  0
  6  7  1  0
  6 34  1  0
  7  8  2  0
  7 35  1  0
  8  9  1  0
  8 36  1  0
 10 11  2  0
 10 37  1  0
 11 12  1  0
 11 30  1  0
 12 29  1  0
 12 13  2  0
 13 14  1  0
 13 38  1  0
 14 15  2  0
 14 39  1  0
 15 16  1  0
 15 40  1  0
 16 17  1  0
 16 29  2  0
 17 18  1  0
 17 41  1  0
 18 27  1  0
 18 19  1  0
 18 42  1  1
 19 20  1  0
 19 43  1  0
 19 44  1  0
 20 21  1  0
 20 45  1  0
 20 46  1  0
 21 22  1  6
 21 27  1  0
 21 23  1  0
 23 24  1  0
 23 47  1  0
 23 48  1  0
 24 25  1  0
 24 49  1  0
 24 50  1  0
 25 26  1  0
 25 51  1  0
 25 52  1  0
 26 27  1  0
 26 53  1  0
 26 54  1  0
 27 28  1  1
 29 55  1  0
 30 56  1  0
M  CHG  1  21   1
M  END
>  <DOCK_score>  (1) 
-56.209618

>  <SMILES>  (1) 
c1cc(Nc2cccs2)cc(-c2cccc(NC3CC[NH+]4CCCC[C@@H]34)c2)c1

$$$$
