CCC[C@H](Nc1[nH]cc(-c2ccccc2)[nH+]1)c1ccccc1
     RDKit          3D

 44 46  0  0  1  0  0  0  0  0999 V2000
  128.9516  138.4353  162.1695 C   0  0  0  0  0  0  0  0  0  0  0  0
  128.6001  137.0691  161.5771 C   0  0  0  0  0  0  0  0  0  0  0  0
  129.4276  136.8337  160.3119 C   0  0  0  0  0  0  0  0  0  0  0  0
  129.0761  135.4676  159.7196 C   0  0  2  0  0  0  0  0  0  0  0  0
  128.9527  134.7433  160.5246 H   0  0  0  0  0  0  0  0  0  0  0  0
  130.1539  135.0293  158.8294 N   0  0  0  0  0  0  0  0  0  0  0  0
  130.0591  133.8136  158.1740 C   0  0  0  0  0  0  0  0  0  0  0  0
  129.4035  132.7136  158.6349 N   0  0  0  0  0  0  0  0  0  0  0  0
  128.9231  132.6409  159.4745 H   0  0  0  0  0  0  0  0  0  0  0  0
  129.5481  131.7252  157.6920 C   0  0  0  0  0  0  0  0  0  0  0  0
  130.2824  132.2508  156.6803 C   0  0  0  0  0  0  0  0  0  0  0  0
  130.6853  131.5483  155.4375 C   0  0  0  0  0  0  0  0  0  0  0  0
  130.2794  132.0348  154.1960 C   0  0  0  0  0  0  0  0  0  0  0  0
  130.6629  131.3807  153.0428 C   0  0  0  0  0  0  0  0  0  0  0  0
  131.4374  130.2366  153.1183 C   0  0  0  0  0  0  0  0  0  0  0  0
  131.8384  129.7466  154.3477 C   0  0  0  0  0  0  0  0  0  0  0  0
  131.4663  130.3960  155.5072 C   0  0  0  0  0  0  0  0  0  0  0  0
  130.5860  133.5321  157.0074 N   0  0  0  0  0  0  0  0  0  0  0  0
  131.1063  134.1435  156.4629 H   0  0  0  0  0  0  0  0  0  0  0  0
  127.7916  135.5742  158.9386 C   0  0  0  0  0  0  0  0  0  0  0  0
  126.5805  135.3498  159.5661 C   0  0  0  0  0  0  0  0  0  0  0  0
  125.4021  135.4513  158.8507 C   0  0  0  0  0  0  0  0  0  0  0  0
  125.4352  135.7694  157.5058 C   0  0  0  0  0  0  0  0  0  0  0  0
  126.6465  135.9887  156.8772 C   0  0  0  0  0  0  0  0  0  0  0  0
  127.8248  135.8909  157.5935 C   0  0  0  0  0  0  0  0  0  0  0  0
  128.3622  138.6030  163.0710 H   0  0  0  0  0  0  0  0  0  0  0  0
  130.0124  138.4612  162.4191 H   0  0  0  0  0  0  0  0  0  0  0  0
  128.7307  139.2151  161.4408 H   0  0  0  0  0  0  0  0  0  0  0  0
  127.5394  137.0433  161.3276 H   0  0  0  0  0  0  0  0  0  0  0  0
  128.8211  136.2893  162.3061 H   0  0  0  0  0  0  0  0  0  0  0  0
  130.4883  136.8595  160.5614 H   0  0  0  0  0  0  0  0  0  0  0  0
  129.2066  137.6136  159.5830 H   0  0  0  0  0  0  0  0  0  0  0  0
  130.9341  135.5910  158.6991 H   0  0  0  0  0  0  0  0  0  0  0  0
  129.1500  130.7226  157.7445 H   0  0  0  0  0  0  0  0  0  0  0  0
  129.6704  132.9246  154.1364 H   0  0  0  0  0  0  0  0  0  0  0  0
  130.3535  131.7599  152.0800 H   0  0  0  0  0  0  0  0  0  0  0  0
  131.7315  129.7256  152.2134 H   0  0  0  0  0  0  0  0  0  0  0  0
  132.4436  128.8537  154.4005 H   0  0  0  0  0  0  0  0  0  0  0  0
  131.7803  130.0124  156.4668 H   0  0  0  0  0  0  0  0  0  0  0  0
  126.5549  135.0980  160.6160 H   0  0  0  0  0  0  0  0  0  0  0  0
  124.4557  135.2796  159.3419 H   0  0  0  0  0  0  0  0  0  0  0  0
  124.5146  135.8461  156.9463 H   0  0  0  0  0  0  0  0  0  0  0  0
  126.6724  136.2368  155.8262 H   0  0  0  0  0  0  0  0  0  0  0  0
  128.7711  136.0622  157.1022 H   0  0  0  0  0  0  0  0  0  0  0  0
  1  2  1  0
  1 26  1  0
  1 27  1  0
  1 28  1  0
  2  3  1  0
  2 29  1  0
  2 30  1  0
  3  4  1  0
  3 31  1  0
  3 32  1  0
  4  5  1  1
  4  6  1  0
  4 20  1  0
  6 33  1  0
  7  6  1  0
  7 18  2  0
  7  8  1  0
  8  9  1  0
  8 10  1  0
 10 11  2  0
 10 34  1  0
 11 12  1  0
 11 18  1  0
 12 17  1  0
 12 13  2  0
 13 14  1  0
 13 35  1  0
 14 15  2  0
 14 36  1  0
 15 16  1  0
 15 37  1  0
 16 17  2  0
 16 38  1  0
 17 39  1  0
 18 19  1  0
 20 25  1  0
 20 21  2  0
 21 22  1  0
 21 40  1  0
 22 23  2  0
 22 41  1  0
 23 24  1  0
 23 42  1  0
 24 25  2  0
 24 43  1  0
 25 44  1  0
M  CHG  1  18   1
M  END
>  <DOCK_score>  (1) 
-55.916016

>  <SMILES>  (1) 
CCC[C@H](Nc1[nH]cc(-c2ccccc2)[nH+]1)c1ccccc1

$$$$
