CC1=CC(C(=O)C2CC[C@@H](C)C2[NH2+]Cc2cnn(-c3ccccc3)c2)=C(O)C1
     RDKit          3D

 56 59  0  0  1  0  0  0  0  0999 V2000
  137.0771  140.6231  159.7185 C   0  0  0  0  0  0  0  0  0  0  0  0
  135.7540  139.9757  160.0372 C   0  0  0  0  0  0  0  0  0  0  0  0
  135.1035  140.0523  161.1867 C   0  0  0  0  0  0  0  0  0  0  0  0
  133.8460  139.2889  161.1277 C   0  0  0  0  0  0  0  0  0  0  0  0
  132.9188  139.1631  162.1919 C   0  0  0  0  0  0  0  0  0  0  0  0
  131.7771  139.5518  162.0515 O   0  0  0  0  0  0  0  0  0  0  0  0
  133.3497  138.5470  163.4979 C   0  0  2  0  0  0  0  0  0  0  0  0
  134.3736  137.4115  163.2500 C   0  0  0  0  0  0  0  0  0  0  0  0
  134.2317  136.5396  164.5224 C   0  0  0  0  0  0  0  0  0  0  0  0
  132.7207  136.5648  164.8318 C   0  0  1  0  0  0  0  0  0  0  0  0
  132.2378  135.6847  164.4070 H   0  0  0  0  0  0  0  0  0  0  0  0
  132.4961  136.6063  166.3447 C   0  0  0  0  0  0  0  0  0  0  0  0
  132.1598  137.8411  164.1804 C   0  0  2  0  0  0  0  0  0  0  0  0
  131.1420  137.4905  163.1809 N   0  0  0  0  0  0  0  0  0  0  0  0
  131.0518  138.2427  162.5146 H   0  0  0  0  0  0  0  0  0  0  0  0
  131.4187  136.6473  162.7007 H   0  0  0  0  0  0  0  0  0  0  0  0
  129.8528  137.2722  163.8504 C   0  0  0  0  0  0  0  0  0  0  0  0
  128.8088  136.9125  162.8251 C   0  0  0  0  0  0  0  0  0  0  0  0
  127.4637  136.6273  163.0851 C   0  0  0  0  0  0  0  0  0  0  0  0
  126.8732  136.3651  161.9470 N   0  0  0  0  0  0  0  0  0  0  0  0
  127.8266  136.4652  160.9255 N   0  0  0  0  0  0  0  0  0  0  0  0
  127.5972  136.2526  159.5590 C   0  0  0  0  0  0  0  0  0  0  0  0
  128.6367  136.3917  158.6493 C   0  0  0  0  0  0  0  0  0  0  0  0
  128.4088  136.1760  157.3042 C   0  0  0  0  0  0  0  0  0  0  0  0
  127.1442  135.8335  156.8620 C   0  0  0  0  0  0  0  0  0  0  0  0
  126.1057  135.6993  157.7650 C   0  0  0  0  0  0  0  0  0  0  0  0
  126.3287  135.9083  159.1121 C   0  0  0  0  0  0  0  0  0  0  0  0
  129.0076  136.8027  161.4911 C   0  0  0  0  0  0  0  0  0  0  0  0
  133.7043  138.7256  159.8940 C   0  0  0  0  0  0  0  0  0  0  0  0
  132.6805  137.9636  159.4682 O   0  0  0  0  0  0  0  0  0  0  0  0
  134.9266  139.1281  159.0990 C   0  0  0  0  0  0  0  0  0  0  0  0
  136.9054  141.6207  159.3140 H   0  0  0  0  0  0  0  0  0  0  0  0
  137.6736  140.6974  160.6278 H   0  0  0  0  0  0  0  0  0  0  0  0
  137.6091  140.0196  158.9832 H   0  0  0  0  0  0  0  0  0  0  0  0
  135.4498  140.5979  162.0521 H   0  0  0  0  0  0  0  0  0  0  0  0
  133.7728  139.3050  164.1572 H   0  0  0  0  0  0  0  0  0  0  0  0
  135.3834  137.8131  163.1676 H   0  0  0  0  0  0  0  0  0  0  0  0
  134.1097  136.8410  162.3596 H   0  0  0  0  0  0  0  0  0  0  0  0
  134.5638  135.5202  164.3253 H   0  0  0  0  0  0  0  0  0  0  0  0
  134.7972  136.9734  165.3470 H   0  0  0  0  0  0  0  0  0  0  0  0
  132.9831  137.4885  166.7603 H   0  0  0  0  0  0  0  0  0  0  0  0
  131.4270  136.6499  166.5522 H   0  0  0  0  0  0  0  0  0  0  0  0
  132.9182  135.7102  166.7993 H   0  0  0  0  0  0  0  0  0  0  0  0
  131.7276  138.4901  164.9422 H   0  0  0  0  0  0  0  0  0  0  0  0
  129.9503  136.4594  164.5703 H   0  0  0  0  0  0  0  0  0  0  0  0
  129.5540  138.1831  164.3692 H   0  0  0  0  0  0  0  0  0  0  0  0
  126.9933  136.6266  164.0573 H   0  0  0  0  0  0  0  0  0  0  0  0
  129.6234  136.6642  158.9935 H   0  0  0  0  0  0  0  0  0  0  0  0
  129.2181  136.2797  156.5965 H   0  0  0  0  0  0  0  0  0  0  0  0
  126.9674  135.6701  155.8091 H   0  0  0  0  0  0  0  0  0  0  0  0
  125.1192  135.4314  157.4167 H   0  0  0  0  0  0  0  0  0  0  0  0
  125.5171  135.8034  159.8169 H   0  0  0  0  0  0  0  0  0  0  0  0
  129.9419  136.9565  160.9716 H   0  0  0  0  0  0  0  0  0  0  0  0
  132.7254  137.6358  158.5596 H   0  0  0  0  0  0  0  0  0  0  0  0
  135.4872  138.2441  158.7953 H   0  0  0  0  0  0  0  0  0  0  0  0
  134.6336  139.7091  158.2245 H   0  0  0  0  0  0  0  0  0  0  0  0
  1  2  1  0
  1 32  1  0
  1 33  1  0
  1 34  1  0
  2 31  1  0
  2  3  2  0
  3  4  1  0
  3 35  1  0
  4  5  1  0
  4 29  2  0
  5  6  2  0
  5  7  1  0
  7 13  1  0
  7  8  1  0
  7 36  1  1
  8  9  1  0
  8 37  1  0
  8 38  1  0
  9 10  1  0
  9 39  1  0
  9 40  1  0
 10 11  1  6
 10 12  1  0
 10 13  1  0
 12 41  1  0
 12 42  1  0
 12 43  1  0
 13 14  1  0
 13 44  1  1
 14 15  1  0
 14 16  1  0
 14 17  1  0
 17 18  1  0
 17 45  1  0
 17 46  1  0
 18 28  2  0
 18 19  1  0
 19 20  2  0
 19 47  1  0
 20 21  1  0
 21 22  1  0
 21 28  1  0
 22 27  1  0
 22 23  2  0
 23 24  1  0
 23 48  1  0
 24 25  2  0
 24 49  1  0
 25 26  1  0
 25 50  1  0
 26 27  2  0
 26 51  1  0
 27 52  1  0
 28 53  1  0
 29 30  1  0
 29 31  1  0
 30 54  1  0
 31 55  1  0
 31 56  1  0
M  CHG  1  14   1
M  END
>  <DOCK_score>  (1) 
-42.517292

>  <SMILES>  (1) 
CC1=CC(C(=O)C2CC[C@@H](C)C2[NH2+]Cc2cnn(-c3ccccc3)c2)=C(O)C1

$$$$
