Oc1ccc2c(c1)[C@@](O)(c1ccc(-c3n[nH]cc3C[NH2+][C@H]3C[C@@H](F)[C@@H](F)C3)cc1)c1ccccc1-2
     RDKit          3D

 61 66  0  0  1  0  0  0  0  0999 V2000
  124.6088  134.9191  161.4898 O   0  0  0  0  0  0  0  0  0  0  0  0
  125.5597  134.2269  160.8095 C   0  0  0  0  0  0  0  0  0  0  0  0
  125.3088  132.9252  160.3962 C   0  0  0  0  0  0  0  0  0  0  0  0
  126.2684  132.2215  159.7014 C   0  0  0  0  0  0  0  0  0  0  0  0
  127.5021  132.8127  159.4197 C   0  0  0  0  0  0  0  0  0  0  0  0
  127.7488  134.1165  159.8424 C   0  0  0  0  0  0  0  0  0  0  0  0
  126.7847  134.8188  160.5323 C   0  0  0  0  0  0  0  0  0  0  0  0
  129.1451  134.4812  159.4007 C   0  0  1  0  0  0  0  0  0  0  0  0
  129.1038  135.6005  158.5132 O   0  0  0  0  0  0  0  0  0  0  0  0
  130.0018  134.7994  160.5989 C   0  0  0  0  0  0  0  0  0  0  0  0
  129.7488  134.1819  161.8104 C   0  0  0  0  0  0  0  0  0  0  0  0
  130.5335  134.4661  162.9099 C   0  0  0  0  0  0  0  0  0  0  0  0
  131.5749  135.3844  162.8005 C   0  0  0  0  0  0  0  0  0  0  0  0
  132.4183  135.6989  163.9806 C   0  0  0  0  0  0  0  0  0  0  0  0
  133.5270  135.0799  164.3270 N   0  0  0  0  0  0  0  0  0  0  0  0
  134.0134  135.6795  165.4958 N   0  0  0  0  0  0  0  0  0  0  0  0
  134.8180  135.4246  165.9739 H   0  0  0  0  0  0  0  0  0  0  0  0
  133.1678  136.6740  165.8414 C   0  0  0  0  0  0  0  0  0  0  0  0
  132.1767  136.7160  164.9245 C   0  0  0  0  0  0  0  0  0  0  0  0
  131.0164  137.6776  164.9153 C   0  0  0  0  0  0  0  0  0  0  0  0
  131.3796  138.8760  164.1473 N   0  0  0  0  0  0  0  0  0  0  0  0
  132.1799  139.3186  164.5733 H   0  0  0  0  0  0  0  0  0  0  0  0
  131.6057  138.6126  163.1998 H   0  0  0  0  0  0  0  0  0  0  0  0
  130.2486  139.8134  164.1383 C   0  0  1  0  0  0  0  0  0  0  0  0
  129.7663  139.8371  165.1155 H   0  0  0  0  0  0  0  0  0  0  0  0
  130.7228  141.2312  163.7333 C   0  0  0  0  0  0  0  0  0  0  0  0
  129.4245  141.8826  163.1917 C   0  0  1  0  0  0  0  0  0  0  0  0
  128.8084  142.2427  164.0156 H   0  0  0  0  0  0  0  0  0  0  0  0
  129.7296  142.9280  162.3136 F   0  0  0  0  0  0  0  0  0  0  0  0
  128.7092  140.7394  162.4425 C   0  0  1  0  0  0  0  0  0  0  0  0
  127.6315  140.8139  162.5888 H   0  0  0  0  0  0  0  0  0  0  0  0
  129.0121  140.7963  161.0778 F   0  0  0  0  0  0  0  0  0  0  0  0
  129.2332  139.4238  163.0443 C   0  0  0  0  0  0  0  0  0  0  0  0
  131.8221  136.0077  161.5789 C   0  0  0  0  0  0  0  0  0  0  0  0
  131.0346  135.7123  160.4846 C   0  0  0  0  0  0  0  0  0  0  0  0
  129.6853  133.2687  158.6828 C   0  0  0  0  0  0  0  0  0  0  0  0
  130.8951  133.0176  158.0716 C   0  0  0  0  0  0  0  0  0  0  0  0
  131.1294  131.7898  157.4772 C   0  0  0  0  0  0  0  0  0  0  0  0
  130.1509  130.8126  157.4953 C   0  0  0  0  0  0  0  0  0  0  0  0
  128.9373  131.0551  158.1048 C   0  0  0  0  0  0  0  0  0  0  0  0
  128.6939  132.2911  158.7062 C   0  0  0  0  0  0  0  0  0  0  0  0
  124.8765  135.8143  161.7386 H   0  0  0  0  0  0  0  0  0  0  0  0
  124.3573  132.4642  160.6167 H   0  0  0  0  0  0  0  0  0  0  0  0
  126.0679  131.2107  159.3780 H   0  0  0  0  0  0  0  0  0  0  0  0
  126.9818  135.8297  160.8572 H   0  0  0  0  0  0  0  0  0  0  0  0
  129.9723  135.8822  158.1948 H   0  0  0  0  0  0  0  0  0  0  0  0
  128.9386  133.4729  161.8952 H   0  0  0  0  0  0  0  0  0  0  0  0
  130.3379  133.9799  163.8542 H   0  0  0  0  0  0  0  0  0  0  0  0
  133.2690  137.3247  166.6973 H   0  0  0  0  0  0  0  0  0  0  0  0
  130.1517  137.1994  164.4552 H   0  0  0  0  0  0  0  0  0  0  0  0
  130.7723  137.9623  165.9389 H   0  0  0  0  0  0  0  0  0  0  0  0
  131.0981  141.7753  164.6000 H   0  0  0  0  0  0  0  0  0  0  0  0
  131.4812  141.1764  162.9521 H   0  0  0  0  0  0  0  0  0  0  0  0
  129.7242  138.8300  162.2734 H   0  0  0  0  0  0  0  0  0  0  0  0
  128.4104  138.8590  163.4827 H   0  0  0  0  0  0  0  0  0  0  0  0
  132.6287  136.7205  161.4884 H   0  0  0  0  0  0  0  0  0  0  0  0
  131.2250  136.1950  159.5374 H   0  0  0  0  0  0  0  0  0  0  0  0
  131.6605  133.7794  158.0564 H   0  0  0  0  0  0  0  0  0  0  0  0
  132.0775  131.5948  156.9984 H   0  0  0  0  0  0  0  0  0  0  0  0
  130.3376  129.8559  157.0300 H   0  0  0  0  0  0  0  0  0  0  0  0
  128.1759  130.2893  158.1162 H   0  0  0  0  0  0  0  0  0  0  0  0
  1  2  1  0
  1 42  1  0
  2  7  2  0
  2  3  1  0
  3  4  2  0
  3 43  1  0
  4  5  1  0
  4 44  1  0
  5 41  1  0
  5  6  2  0
  6  7  1  0
  6  8  1  0
  7 45  1  0
  8  9  1  6
  8 10  1  0
  8 36  1  0
  9 46  1  0
 10 35  1  0
 10 11  2  0
 11 12  1  0
 11 47  1  0
 12 13  2  0
 12 48  1  0
 13 14  1  0
 13 34  1  0
 14 19  1  0
 14 15  2  0
 15 16  1  0
 16 17  1  0
 16 18  1  0
 18 19  2  0
 18 49  1  0
 19 20  1  0
 20 21  1  0
 20 50  1  0
 20 51  1  0
 21 22  1  0
 21 23  1  0
 21 24  1  0
 24 25  1  1
 24 33  1  0
 24 26  1  0
 26 27  1  0
 26 52  1  0
 26 53  1  0
 27 28  1  1
 27 29  1  0
 27 30  1  0
 30 31  1  6
 30 32  1  0
 30 33  1  0
 33 54  1  0
 33 55  1  0
 34 35  2  0
 34 56  1  0
 35 57  1  0
 36 41  2  0
 36 37  1  0
 37 38  2  0
 37 58  1  0
 38 39  1  0
 38 59  1  0
 39 40  2  0
 39 60  1  0
 40 41  1  0
 40 61  1  0
M  CHG  1  21   1
M  END
>  <DOCK_score>  (1) 
-44.293362

>  <SMILES>  (1) 
Oc1ccc2c(c1)[C@@](O)(c1ccc(-c3n[nH]cc3C[NH2+][C@H]3C[C@@H](F)[C@@H](F)C3)cc1)c1ccccc1-2

$$$$
