Cc1ccc(C(c2ccccc2)[N@H+]2CC=C(Cc3cccc4cccnc34)C2)cc1
     RDKit          3D

 57 61  0  0  1  0  0  0  0  0999 V2000
  129.2132  142.0107  162.6798 C   0  0  0  0  0  0  0  0  0  0  0  0
  130.2029  140.9266  162.3390 C   0  0  0  0  0  0  0  0  0  0  0  0
  130.6256  140.7622  161.0332 C   0  0  0  0  0  0  0  0  0  0  0  0
  131.5336  139.7678  160.7205 C   0  0  0  0  0  0  0  0  0  0  0  0
  132.0187  138.9376  161.7137 C   0  0  0  0  0  0  0  0  0  0  0  0
  133.0081  137.8533  161.3727 C   0  0  2  0  0  0  0  0  0  0  0  0
  134.2469  138.4725  160.7784 C   0  0  0  0  0  0  0  0  0  0  0  0
  135.2911  138.8543  161.5999 C   0  0  0  0  0  0  0  0  0  0  0  0
  136.4294  139.4177  161.0540 C   0  0  0  0  0  0  0  0  0  0  0  0
  136.5192  139.6086  159.6879 C   0  0  0  0  0  0  0  0  0  0  0  0
  135.4727  139.2320  158.8670 C   0  0  0  0  0  0  0  0  0  0  0  0
  134.3365  138.6637  159.4122 C   0  0  0  0  0  0  0  0  0  0  0  0
  132.4075  136.9303  160.4006 N   0  0  1  0  0  0  0  0  0  0  0  0
  132.1542  137.4182  159.5545 H   0  0  0  0  0  0  0  0  0  0  0  0
  133.3288  135.8077  160.1038 C   0  0  0  0  0  0  0  0  0  0  0  0
  132.4401  134.6012  159.9083 C   0  0  0  0  0  0  0  0  0  0  0  0
  131.2545  134.8473  160.4073 C   0  0  0  0  0  0  0  0  0  0  0  0
  130.0929  133.8874  160.4045 C   0  0  0  0  0  0  0  0  0  0  0  0
  130.5064  132.6003  159.7386 C   0  0  0  0  0  0  0  0  0  0  0  0
  131.0486  131.5931  160.4760 C   0  0  0  0  0  0  0  0  0  0  0  0
  131.4332  130.3934  159.8813 C   0  0  0  0  0  0  0  0  0  0  0  0
  131.2861  130.1989  158.5416 C   0  0  0  0  0  0  0  0  0  0  0  0
  130.7355  131.2185  157.7489 C   0  0  0  0  0  0  0  0  0  0  0  0
  130.5669  131.0578  156.3606 C   0  0  0  0  0  0  0  0  0  0  0  0
  130.0248  132.0927  155.6532 C   0  0  0  0  0  0  0  0  0  0  0  0
  129.6562  133.2655  156.3089 C   0  0  0  0  0  0  0  0  0  0  0  0
  129.8149  133.4120  157.6018 N   0  0  0  0  0  0  0  0  0  0  0  0
  130.3390  132.4379  158.3525 C   0  0  0  0  0  0  0  0  0  0  0  0
  131.2291  136.2465  160.9848 C   0  0  0  0  0  0  0  0  0  0  0  0
  131.5920  139.0986  163.0187 C   0  0  0  0  0  0  0  0  0  0  0  0
  130.6885  140.0966  163.3323 C   0  0  0  0  0  0  0  0  0  0  0  0
  128.2000  141.6179  162.5936 H   0  0  0  0  0  0  0  0  0  0  0  0
  129.3850  142.3516  163.7008 H   0  0  0  0  0  0  0  0  0  0  0  0
  129.3386  142.8466  161.9916 H   0  0  0  0  0  0  0  0  0  0  0  0
  130.2464  141.4106  160.2571 H   0  0  0  0  0  0  0  0  0  0  0  0
  131.8636  139.6392  159.7002 H   0  0  0  0  0  0  0  0  0  0  0  0
  133.2736  137.3062  162.2773 H   0  0  0  0  0  0  0  0  0  0  0  0
  135.2192  138.7089  162.6676 H   0  0  0  0  0  0  0  0  0  0  0  0
  137.2469  139.7122  161.6954 H   0  0  0  0  0  0  0  0  0  0  0  0
  137.4069  140.0523  159.2619 H   0  0  0  0  0  0  0  0  0  0  0  0
  135.5426  139.3814  157.7997 H   0  0  0  0  0  0  0  0  0  0  0  0
  133.5189  138.3695  158.7708 H   0  0  0  0  0  0  0  0  0  0  0  0
  133.8926  136.0128  159.1938 H   0  0  0  0  0  0  0  0  0  0  0  0
  134.0088  135.6461  160.9402 H   0  0  0  0  0  0  0  0  0  0  0  0
  132.7368  133.6790  159.4310 H   0  0  0  0  0  0  0  0  0  0  0  0
  129.7873  133.6837  161.4308 H   0  0  0  0  0  0  0  0  0  0  0  0
  129.2590  134.3277  159.8579 H   0  0  0  0  0  0  0  0  0  0  0  0
  131.1796  131.7246  161.5399 H   0  0  0  0  0  0  0  0  0  0  0  0
  131.8573  129.6086  160.4902 H   0  0  0  0  0  0  0  0  0  0  0  0
  131.5911  129.2658  158.0914 H   0  0  0  0  0  0  0  0  0  0  0  0
  130.8579  130.1414  155.8686 H   0  0  0  0  0  0  0  0  0  0  0  0
  129.8816  132.0018  154.5866 H   0  0  0  0  0  0  0  0  0  0  0  0
  129.2284  134.0754  155.7367 H   0  0  0  0  0  0  0  0  0  0  0  0
  131.3151  136.2076  162.0707 H   0  0  0  0  0  0  0  0  0  0  0  0
  130.3125  136.7606  160.6960 H   0  0  0  0  0  0  0  0  0  0  0  0
  131.9676  138.4472  163.7939 H   0  0  0  0  0  0  0  0  0  0  0  0
  130.3584  140.2253  164.3525 H   0  0  0  0  0  0  0  0  0  0  0  0
  1  2  1  0
  1 32  1  0
  1 33  1  0
  1 34  1  0
  2 31  2  0
  2  3  1  0
  3  4  2  0
  3 35  1  0
  4  5  1  0
  4 36  1  0
  5  6  1  0
  5 30  2  0
  6  7  1  0
  6 13  1  0
  6 37  1  1
  7 12  1  0
  7  8  2  0
  8  9  1  0
  8 38  1  0
  9 10  2  0
  9 39  1  0
 10 11  1  0
 10 40  1  0
 11 12  2  0
 11 41  1  0
 12 42  1  0
 13 14  1  6
 13 29  1  0
 13 15  1  0
 15 16  1  0
 15 43  1  0
 15 44  1  0
 16 17  2  0
 16 45  1  0
 17 18  1  0
 17 29  1  0
 18 19  1  0
 18 46  1  0
 18 47  1  0
 19 28  1  0
 19 20  2  0
 20 21  1  0
 20 48  1  0
 21 22  2  0
 21 49  1  0
 22 23  1  0
 22 50  1  0
 23 28  2  0
 23 24  1  0
 24 25  2  0
 24 51  1  0
 25 26  1  0
 25 52  1  0
 26 27  2  0
 26 53  1  0
 27 28  1  0
 29 54  1  0
 29 55  1  0
 30 31  1  0
 30 56  1  0
 31 57  1  0
M  CHG  1  13   1
M  END
>  <DOCK_score>  (1) 
-56.146381

>  <SMILES>  (1) 
Cc1ccc(C(c2ccccc2)[N@H+]2CC=C(Cc3cccc4cccnc34)C2)cc1

$$$$
