Cc1c[nH]c(Nc2nc(C=C3CC(=O)NCC3=O)c[nH]2)[nH+]1
     RDKit          3D

 36 38  0  0  1  0  0  0  0  0999 V2000
  134.7846  135.8542  162.5430 C   0  0  0  0  0  0  0  0  0  0  0  0
  133.6126  135.4684  161.6777 C   0  0  0  0  0  0  0  0  0  0  0  0
  132.3185  135.7034  161.9552 C   0  0  0  0  0  0  0  0  0  0  0  0
  131.5854  135.1973  160.9067 N   0  0  0  0  0  0  0  0  0  0  0  0
  130.6199  135.2181  160.8147 H   0  0  0  0  0  0  0  0  0  0  0  0
  132.4707  134.6593  160.0250 C   0  0  0  0  0  0  0  0  0  0  0  0
  132.1474  134.0392  158.8272 N   0  0  0  0  0  0  0  0  0  0  0  0
  130.9401  133.3744  158.6956 C   0  0  0  0  0  0  0  0  0  0  0  0
  130.0290  133.2651  159.6285 N   0  0  0  0  0  0  0  0  0  0  0  0
  128.9822  132.5426  159.1434 C   0  0  0  0  0  0  0  0  0  0  0  0
  127.7610  132.1919  159.8704 C   0  0  0  0  0  0  0  0  0  0  0  0
  126.9539  133.1720  160.3557 C   0  0  0  0  0  0  0  0  0  0  0  0
  125.7944  132.7991  161.2333 C   0  0  0  0  0  0  0  0  0  0  0  0
  124.7892  133.9090  161.2899 C   0  0  0  0  0  0  0  0  0  0  0  0
  123.6613  133.6447  161.6489 O   0  0  0  0  0  0  0  0  0  0  0  0
  125.0686  135.1715  160.9682 N   0  0  0  0  0  0  0  0  0  0  0  0
  126.3766  135.6318  160.5312 C   0  0  0  0  0  0  0  0  0  0  0  0
  127.2224  134.5019  160.0258 C   0  0  0  0  0  0  0  0  0  0  0  0
  128.1705  134.7510  159.3076 O   0  0  0  0  0  0  0  0  0  0  0  0
  129.2804  132.2072  157.8403 C   0  0  0  0  0  0  0  0  0  0  0  0
  130.5090  132.7336  157.5715 N   0  0  0  0  0  0  0  0  0  0  0  0
  130.9899  132.6652  156.7319 H   0  0  0  0  0  0  0  0  0  0  0  0
  133.6824  134.8315  160.4972 N   0  0  0  0  0  0  0  0  0  0  0  0
  134.5003  134.5437  160.0623 H   0  0  0  0  0  0  0  0  0  0  0  0
  135.1271  136.8516  162.2672 H   0  0  0  0  0  0  0  0  0  0  0  0
  134.4803  135.8511  163.5897 H   0  0  0  0  0  0  0  0  0  0  0  0
  135.5943  135.1390  162.3980 H   0  0  0  0  0  0  0  0  0  0  0  0
  131.9286  136.1988  162.8320 H   0  0  0  0  0  0  0  0  0  0  0  0
  132.7672  134.0715  158.0816 H   0  0  0  0  0  0  0  0  0  0  0  0
  127.5013  131.1545  160.0212 H   0  0  0  0  0  0  0  0  0  0  0  0
  125.3174  131.9034  160.8353 H   0  0  0  0  0  0  0  0  0  0  0  0
  126.1586  132.5937  162.2399 H   0  0  0  0  0  0  0  0  0  0  0  0
  124.3541  135.8248  161.0288 H   0  0  0  0  0  0  0  0  0  0  0  0
  126.8843  136.1080  161.3701 H   0  0  0  0  0  0  0  0  0  0  0  0
  126.2477  136.3636  159.7338 H   0  0  0  0  0  0  0  0  0  0  0  0
  128.6608  131.6378  157.1633 H   0  0  0  0  0  0  0  0  0  0  0  0
  1  2  1  0
  1 25  1  0
  1 26  1  0
  1 27  1  0
  2 23  1  0
  2  3  2  0
  3  4  1  0
  3 28  1  0
  4  5  1  0
  4  6  1  0
  6  7  1  0
  6 23  2  0
  7  8  1  0
  7 29  1  0
  8 21  1  0
  8  9  2  0
  9 10  1  0
 10 11  1  0
 10 20  2  0
 11 12  2  0
 11 30  1  0
 12 18  1  0
 12 13  1  0
 13 14  1  0
 13 31  1  0
 13 32  1  0
 14 15  2  0
 14 16  1  0
 16 17  1  0
 16 33  1  0
 17 18  1  0
 17 34  1  0
 17 35  1  0
 18 19  2  0
 20 21  1  0
 20 36  1  0
 21 22  1  0
 23 24  1  0
M  CHG  1  23   1
M  END
>  <DOCK_score>  (1) 
-42.229488

>  <SMILES>  (1) 
Cc1c[nH]c(Nc2nc(C=C3CC(=O)NCC3=O)c[nH]2)[nH+]1

$$$$
