CC1=CCC(NC(N[C@H]2CCC(=O)NC2)=[NH+]C2CC(=C3CC3)C2)CC1
     RDKit          3D

 56 59  0  0  1  0  0  0  0  0999 V2000
  131.4915  130.2290  155.1324 C   0  0  0  0  0  0  0  0  0  0  0  0
  130.8792  131.2875  156.0130 C   0  0  0  0  0  0  0  0  0  0  0  0
  131.1354  131.2447  157.2812 C   0  0  0  0  0  0  0  0  0  0  0  0
  130.5912  132.2215  158.2822 C   0  0  0  0  0  0  0  0  0  0  0  0
  130.0725  133.4725  157.5698 C   0  0  2  0  0  0  0  0  0  0  0  0
  129.3154  134.2984  158.5139 N   0  0  0  0  0  0  0  0  0  0  0  0
  129.9288  134.7915  159.6411 C   0  0  0  0  0  0  0  0  0  0  0  0
  129.1958  135.0069  160.7841 N   0  0  0  0  0  0  0  0  0  0  0  0
  127.7610  134.7110  160.8008 C   0  0  1  0  0  0  0  0  0  0  0  0
  127.3447  134.8510  159.8032 H   0  0  0  0  0  0  0  0  0  0  0  0
  127.5398  133.2621  161.2520 C   0  0  0  0  0  0  0  0  0  0  0  0
  126.0560  132.9249  161.0856 C   0  0  0  0  0  0  0  0  0  0  0  0
  125.2157  134.0076  161.6998 C   0  0  0  0  0  0  0  0  0  0  0  0
  124.0543  133.7615  161.9479 O   0  0  0  0  0  0  0  0  0  0  0  0
  125.6750  135.2241  161.9875 N   0  0  0  0  0  0  0  0  0  0  0  0
  127.0562  135.6438  161.7865 C   0  0  0  0  0  0  0  0  0  0  0  0
  131.2053  135.0547  159.6262 N   0  0  0  0  0  0  0  0  0  0  0  0
  131.7224  134.9027  158.8197 H   0  0  0  0  0  0  0  0  0  0  0  0
  131.8588  135.5802  160.8274 C   0  0  0  0  0  0  0  0  0  0  0  0
  133.3195  136.0059  160.5993 C   0  0  0  0  0  0  0  0  0  0  0  0
  133.6205  135.3797  161.9486 C   0  0  0  0  0  0  0  0  0  0  0  0
  134.5310  135.5422  162.8764 C   0  0  0  0  0  0  0  0  0  0  0  0
  135.1003  135.1589  164.2180 C   0  0  0  0  0  0  0  0  0  0  0  0
  135.7626  136.2519  163.3768 C   0  0  0  0  0  0  0  0  0  0  0  0
  132.4104  134.4868  161.7585 C   0  0  0  0  0  0  0  0  0  0  0  0
  129.1582  133.0363  156.4181 C   0  0  0  0  0  0  0  0  0  0  0  0
  130.0108  132.3260  155.3652 C   0  0  0  0  0  0  0  0  0  0  0  0
  132.0910  129.5521  155.7411 H   0  0  0  0  0  0  0  0  0  0  0  0
  130.7003  129.6670  154.6361 H   0  0  0  0  0  0  0  0  0  0  0  0
  132.1261  130.7022  154.3830 H   0  0  0  0  0  0  0  0  0  0  0  0
  131.7805  130.4571  157.6413 H   0  0  0  0  0  0  0  0  0  0  0  0
  131.3814  132.5034  158.9783 H   0  0  0  0  0  0  0  0  0  0  0  0
  129.7747  131.7543  158.8328 H   0  0  0  0  0  0  0  0  0  0  0  0
  130.9123  134.0439  157.1748 H   0  0  0  0  0  0  0  0  0  0  0  0
  128.3815  134.4974  158.3435 H   0  0  0  0  0  0  0  0  0  0  0  0
  129.6285  135.3548  161.5796 H   0  0  0  0  0  0  0  0  0  0  0  0
  127.8251  133.1561  162.2987 H   0  0  0  0  0  0  0  0  0  0  0  0
  128.1399  132.5904  160.6382 H   0  0  0  0  0  0  0  0  0  0  0  0
  125.8204  132.8416  160.0247 H   0  0  0  0  0  0  0  0  0  0  0  0
  125.8426  131.9769  161.5794 H   0  0  0  0  0  0  0  0  0  0  0  0
  125.0518  135.8713  162.3532 H   0  0  0  0  0  0  0  0  0  0  0  0
  127.5818  135.6226  162.7412 H   0  0  0  0  0  0  0  0  0  0  0  0
  127.0671  136.6597  161.3917 H   0  0  0  0  0  0  0  0  0  0  0  0
  131.2596  136.3313  161.3419 H   0  0  0  0  0  0  0  0  0  0  0  0
  133.7985  135.4959  159.7635 H   0  0  0  0  0  0  0  0  0  0  0  0
  133.4617  137.0864  160.5758 H   0  0  0  0  0  0  0  0  0  0  0  0
  134.5533  135.4738  165.1066 H   0  0  0  0  0  0  0  0  0  0  0  0
  135.6093  134.1979  164.2937 H   0  0  0  0  0  0  0  0  0  0  0  0
  136.7111  136.0167  162.8939 H   0  0  0  0  0  0  0  0  0  0  0  0
  135.6487  137.2823  163.7139 H   0  0  0  0  0  0  0  0  0  0  0  0
  131.8226  134.3473  162.6658 H   0  0  0  0  0  0  0  0  0  0  0  0
  132.6339  133.5497  161.2487 H   0  0  0  0  0  0  0  0  0  0  0  0
  128.3981  132.3508  156.7929 H   0  0  0  0  0  0  0  0  0  0  0  0
  128.6812  133.9116  155.9773 H   0  0  0  0  0  0  0  0  0  0  0  0
  130.6399  133.0588  154.8599 H   0  0  0  0  0  0  0  0  0  0  0  0
  129.3573  131.8468  154.6362 H   0  0  0  0  0  0  0  0  0  0  0  0
  1  2  1  0
  1 28  1  0
  1 29  1  0
  1 30  1  0
  2 27  1  0
  2  3  2  0
  3  4  1  0
  3 31  1  0
  4  5  1  0
  4 32  1  0
  4 33  1  0
  5  6  1  0
  5 26  1  0
  5 34  1  6
  6 35  1  0
  7  6  1  0
  7  8  1  0
  7 17  2  0
  8  9  1  0
  8 36  1  0
  9 10  1  6
  9 16  1  0
  9 11  1  0
 11 12  1  0
 11 37  1  0
 11 38  1  0
 12 13  1  0
 12 39  1  0
 12 40  1  0
 13 14  2  0
 13 15  1  0
 15 16  1  0
 15 41  1  0
 16 42  1  0
 16 43  1  0
 17 18  1  0
 17 19  1  0
 19 25  1  0
 19 20  1  0
 19 44  1  0
 20 21  1  0
 20 45  1  0
 20 46  1  0
 21 22  2  0
 21 25  1  0
 22 24  1  0
 22 23  1  0
 23 24  1  0
 23 47  1  0
 23 48  1  0
 24 49  1  0
 24 50  1  0
 25 51  1  0
 25 52  1  0
 26 27  1  0
 26 53  1  0
 26 54  1  0
 27 55  1  0
 27 56  1  0
M  CHG  1  17   1
M  END
>  <DOCK_score>  (1) 
-44.277927

>  <SMILES>  (1) 
CC1=CCC(NC(N[C@H]2CCC(=O)NC2)=[NH+]C2CC(=C3CC3)C2)CC1

$$$$
