Nc1ccc(-c2c[nH]c(NCc3c[nH]nc3Nc3ccc(-c4ccccc4)cc3)[nH+]2)cc1
     RDKit          3D

 56 60  0  0  1  0  0  0  0  0999 V2000
  130.7968  129.9668  152.0942 N   0  0  0  0  0  0  0  0  0  0  0  0
  130.6623  130.5736  153.3453 C   0  0  0  0  0  0  0  0  0  0  0  0
  129.9406  131.7553  153.4691 C   0  0  0  0  0  0  0  0  0  0  0  0
  129.8071  132.3565  154.7028 C   0  0  0  0  0  0  0  0  0  0  0  0
  130.3962  131.7785  155.8262 C   0  0  0  0  0  0  0  0  0  0  0  0
  130.2539  132.4235  157.1546 C   0  0  0  0  0  0  0  0  0  0  0  0
  129.6838  131.8701  158.2533 C   0  0  0  0  0  0  0  0  0  0  0  0
  129.7679  132.8036  159.2591 N   0  0  0  0  0  0  0  0  0  0  0  0
  129.4483  132.6985  160.1688 H   0  0  0  0  0  0  0  0  0  0  0  0
  130.3791  133.9036  158.7414 C   0  0  0  0  0  0  0  0  0  0  0  0
  130.6528  135.0730  159.4301 N   0  0  0  0  0  0  0  0  0  0  0  0
  130.6939  135.0683  160.8945 C   0  0  0  0  0  0  0  0  0  0  0  0
  129.3201  135.3680  161.4366 C   0  0  0  0  0  0  0  0  0  0  0  0
  128.2092  135.6064  160.7033 C   0  0  0  0  0  0  0  0  0  0  0  0
  127.1888  135.8299  161.5580 N   0  0  0  0  0  0  0  0  0  0  0  0
  126.2719  136.0278  161.3112 H   0  0  0  0  0  0  0  0  0  0  0  0
  127.6843  135.7212  162.8637 N   0  0  0  0  0  0  0  0  0  0  0  0
  128.9663  135.4487  162.7934 C   0  0  0  0  0  0  0  0  0  0  0  0
  129.8287  135.2646  163.8808 N   0  0  0  0  0  0  0  0  0  0  0  0
  129.3403  135.3678  165.1842 C   0  0  0  0  0  0  0  0  0  0  0  0
  129.8644  136.3227  166.0485 C   0  0  0  0  0  0  0  0  0  0  0  0
  129.3831  136.4263  167.3359 C   0  0  0  0  0  0  0  0  0  0  0  0
  128.3704  135.5729  167.7715 C   0  0  0  0  0  0  0  0  0  0  0  0
  127.8513  135.6825  169.1568 C   0  0  0  0  0  0  0  0  0  0  0  0
  126.5275  135.3480  169.4362 C   0  0  0  0  0  0  0  0  0  0  0  0
  126.0499  135.4522  170.7268 C   0  0  0  0  0  0  0  0  0  0  0  0
  126.8826  135.8872  171.7421 C   0  0  0  0  0  0  0  0  0  0  0  0
  128.1959  136.2256  171.4696 C   0  0  0  0  0  0  0  0  0  0  0  0
  128.6855  136.1206  170.1836 C   0  0  0  0  0  0  0  0  0  0  0  0
  127.8499  134.6127  166.9050 C   0  0  0  0  0  0  0  0  0  0  0  0
  128.3302  134.5157  165.6166 C   0  0  0  0  0  0  0  0  0  0  0  0
  130.6711  133.6714  157.4849 N   0  0  0  0  0  0  0  0  0  0  0  0
  131.1147  134.2927  156.8865 H   0  0  0  0  0  0  0  0  0  0  0  0
  131.1241  130.5964  155.6987 C   0  0  0  0  0  0  0  0  0  0  0  0
  131.2502  129.9956  154.4638 C   0  0  0  0  0  0  0  0  0  0  0  0
  130.3865  130.3696  151.3130 H   0  0  0  0  0  0  0  0  0  0  0  0
  131.3002  129.1423  152.0067 H   0  0  0  0  0  0  0  0  0  0  0  0
  129.4845  132.2027  152.5985 H   0  0  0  0  0  0  0  0  0  0  0  0
  129.2462  133.2745  154.7987 H   0  0  0  0  0  0  0  0  0  0  0  0
  129.2506  130.8834  158.3257 H   0  0  0  0  0  0  0  0  0  0  0  0
  130.8173  135.8956  158.9429 H   0  0  0  0  0  0  0  0  0  0  0  0
  131.3949  135.8279  161.2407 H   0  0  0  0  0  0  0  0  0  0  0  0
  131.0174  134.0884  161.2457 H   0  0  0  0  0  0  0  0  0  0  0  0
  128.1492  135.6160  159.6251 H   0  0  0  0  0  0  0  0  0  0  0  0
  130.7657  135.0656  163.7282 H   0  0  0  0  0  0  0  0  0  0  0  0
  130.6486  136.9838  165.7106 H   0  0  0  0  0  0  0  0  0  0  0  0
  129.7901  137.1684  168.0068 H   0  0  0  0  0  0  0  0  0  0  0  0
  125.8766  135.0082  168.6443 H   0  0  0  0  0  0  0  0  0  0  0  0
  125.0243  135.1933  170.9445 H   0  0  0  0  0  0  0  0  0  0  0  0
  126.5047  135.9674  172.7507 H   0  0  0  0  0  0  0  0  0  0  0  0
  128.8402  136.5690  172.2654 H   0  0  0  0  0  0  0  0  0  0  0  0
  129.7121  136.3814  169.9726 H   0  0  0  0  0  0  0  0  0  0  0  0
  127.0682  133.9480  167.2418 H   0  0  0  0  0  0  0  0  0  0  0  0
  127.9247  133.7744  164.9438 H   0  0  0  0  0  0  0  0  0  0  0  0
  131.5854  130.1493  156.5668 H   0  0  0  0  0  0  0  0  0  0  0  0
  131.8102  129.0774  154.3652 H   0  0  0  0  0  0  0  0  0  0  0  0
  1  2  1  0
  1 36  1  0
  1 37  1  0
  2 35  2  0
  2  3  1  0
  3  4  2  0
  3 38  1  0
  4  5  1  0
  4 39  1  0
  5  6  1  0
  5 34  2  0
  6 32  1  0
  6  7  2  0
  7  8  1  0
  7 40  1  0
  8  9  1  0
  8 10  1  0
 10 11  1  0
 10 32  2  0
 11 12  1  0
 11 41  1  0
 12 13  1  0
 12 42  1  0
 12 43  1  0
 13 18  1  0
 13 14  2  0
 14 15  1  0
 14 44  1  0
 15 16  1  0
 15 17  1  0
 17 18  2  0
 18 19  1  0
 19 20  1  0
 19 45  1  0
 20 31  1  0
 20 21  2  0
 21 22  1  0
 21 46  1  0
 22 23  2  0
 22 47  1  0
 23 24  1  0
 23 30  1  0
 24 29  1  0
 24 25  2  0
 25 26  1  0
 25 48  1  0
 26 27  2  0
 26 49  1  0
 27 28  1  0
 27 50  1  0
 28 29  2  0
 28 51  1  0
 29 52  1  0
 30 31  2  0
 30 53  1  0
 31 54  1  0
 32 33  1  0
 34 35  1  0
 34 55  1  0
 35 56  1  0
M  CHG  1  32   1
M  END
>  <DOCK_score>  (1) 
-56.629112

>  <SMILES>  (1) 
Nc1ccc(-c2c[nH]c(NCc3c[nH]nc3Nc3ccc(-c4ccccc4)cc3)[nH+]2)cc1

$$$$
