Fc1ccc(C(Nc2[nH]cc(-c3ccc(C(F)(F)F)cc3)[nH+]2)[C@H]2COc3ccccc3C2)cc1
     RDKit          3D

 56 60  0  0  1  0  0  0  0  0999 V2000
  124.1393  134.2253  160.8717 F   0  0  0  0  0  0  0  0  0  0  0  0
  125.4363  134.5831  160.7489 C   0  0  0  0  0  0  0  0  0  0  0  0
  126.2951  134.4564  161.8275 C   0  0  0  0  0  0  0  0  0  0  0  0
  127.6214  134.8232  161.7009 C   0  0  0  0  0  0  0  0  0  0  0  0
  128.0908  135.3170  160.4980 C   0  0  0  0  0  0  0  0  0  0  0  0
  129.5371  135.7171  160.3613 C   0  0  1  0  0  0  0  0  0  0  0  0
  129.9690  135.5219  158.9750 N   0  0  0  0  0  0  0  0  0  0  0  0
  129.9154  134.2618  158.4042 C   0  0  0  0  0  0  0  0  0  0  0  0
  129.4895  133.1280  159.0249 N   0  0  0  0  0  0  0  0  0  0  0  0
  129.1711  133.0580  159.9384 H   0  0  0  0  0  0  0  0  0  0  0  0
  129.5931  132.1009  158.1185 C   0  0  0  0  0  0  0  0  0  0  0  0
  130.0789  132.6361  156.9711 C   0  0  0  0  0  0  0  0  0  0  0  0
  130.3559  131.9003  155.7134 C   0  0  0  0  0  0  0  0  0  0  0  0
  130.2444  132.5484  154.4846 C   0  0  0  0  0  0  0  0  0  0  0  0
  130.5029  131.8586  153.3175 C   0  0  0  0  0  0  0  0  0  0  0  0
  130.8725  130.5272  153.3654 C   0  0  0  0  0  0  0  0  0  0  0  0
  131.1527  129.7786  152.0878 C   0  0  0  0  0  0  0  0  0  0  0  0
  130.9744  130.6362  150.9969 F   0  0  0  0  0  0  0  0  0  0  0  0
  132.4706  129.3095  152.1017 F   0  0  0  0  0  0  0  0  0  0  0  0
  130.2735  128.6960  151.9784 F   0  0  0  0  0  0  0  0  0  0  0  0
  130.9794  129.8765  154.5822 C   0  0  0  0  0  0  0  0  0  0  0  0
  130.7284  130.5578  155.7558 C   0  0  0  0  0  0  0  0  0  0  0  0
  130.2723  133.9629  157.1791 N   0  0  0  0  0  0  0  0  0  0  0  0
  130.6174  134.5903  156.5248 H   0  0  0  0  0  0  0  0  0  0  0  0
  129.6971  137.1903  160.7426 C   0  0  1  0  0  0  0  0  0  0  0  0
  129.0874  137.8085  160.0837 H   0  0  0  0  0  0  0  0  0  0  0  0
  129.2594  137.3980  162.1981 C   0  0  0  0  0  0  0  0  0  0  0  0
  129.3215  138.7944  162.4919 O   0  0  0  0  0  0  0  0  0  0  0  0
  130.4580  139.4624  162.1641 C   0  0  0  0  0  0  0  0  0  0  0  0
  130.6919  140.7026  162.7500 C   0  0  0  0  0  0  0  0  0  0  0  0
  131.8333  141.4129  162.4398 C   0  0  0  0  0  0  0  0  0  0  0  0
  132.7484  140.8923  161.5432 C   0  0  0  0  0  0  0  0  0  0  0  0
  132.5198  139.6614  160.9602 C   0  0  0  0  0  0  0  0  0  0  0  0
  131.3768  138.9427  161.2695 C   0  0  0  0  0  0  0  0  0  0  0  0
  131.1673  137.5983  160.6200 C   0  0  0  0  0  0  0  0  0  0  0  0
  127.2328  135.4494  159.4220 C   0  0  0  0  0  0  0  0  0  0  0  0
  125.9075  135.0774  159.5444 C   0  0  0  0  0  0  0  0  0  0  0  0
  125.9287  134.0707  162.7674 H   0  0  0  0  0  0  0  0  0  0  0  0
  128.2915  134.7244  162.5421 H   0  0  0  0  0  0  0  0  0  0  0  0
  130.1483  135.1024  161.0222 H   0  0  0  0  0  0  0  0  0  0  0  0
  130.2925  136.2755  158.4571 H   0  0  0  0  0  0  0  0  0  0  0  0
  129.3371  131.0654  158.2874 H   0  0  0  0  0  0  0  0  0  0  0  0
  129.9558  133.5885  154.4458 H   0  0  0  0  0  0  0  0  0  0  0  0
  130.4171  132.3600  152.3647 H   0  0  0  0  0  0  0  0  0  0  0  0
  131.2638  128.8352  154.6136 H   0  0  0  0  0  0  0  0  0  0  0  0
  130.8161  130.0504  156.7052 H   0  0  0  0  0  0  0  0  0  0  0  0
  128.2382  137.0403  162.3290 H   0  0  0  0  0  0  0  0  0  0  0  0
  129.9282  136.8528  162.8640 H   0  0  0  0  0  0  0  0  0  0  0  0
  129.9778  141.1103  163.4501 H   0  0  0  0  0  0  0  0  0  0  0  0
  132.0122  142.3747  162.8973 H   0  0  0  0  0  0  0  0  0  0  0  0
  133.6413  141.4483  161.2986 H   0  0  0  0  0  0  0  0  0  0  0  0
  133.2358  139.2571  160.2600 H   0  0  0  0  0  0  0  0  0  0  0  0
  131.7926  136.8551  161.1147 H   0  0  0  0  0  0  0  0  0  0  0  0
  131.4406  137.6580  159.5665 H   0  0  0  0  0  0  0  0  0  0  0  0
  127.5995  135.8398  158.4842 H   0  0  0  0  0  0  0  0  0  0  0  0
  125.2386  135.1765  158.7024 H   0  0  0  0  0  0  0  0  0  0  0  0
  1  2  1  0
  2 37  2  0
  2  3  1  0
  3  4  2  0
  3 38  1  0
  4  5  1  0
  4 39  1  0
  5  6  1  0
  5 36  2  0
  6  7  1  0
  6 25  1  0
  6 40  1  1
  7 41  1  0
  8  7  1  0
  8 23  2  0
  8  9  1  0
  9 10  1  0
  9 11  1  0
 11 12  2  0
 11 42  1  0
 12 13  1  0
 12 23  1  0
 13 22  1  0
 13 14  2  0
 14 15  1  0
 14 43  1  0
 15 16  2  0
 15 44  1  0
 16 17  1  0
 16 21  1  0
 17 18  1  0
 17 19  1  0
 17 20  1  0
 21 22  2  0
 21 45  1  0
 22 46  1  0
 23 24  1  0
 25 26  1  6
 25 35  1  0
 25 27  1  0
 27 28  1  0
 27 47  1  0
 27 48  1  0
 28 29  1  0
 29 34  2  0
 29 30  1  0
 30 31  2  0
 30 49  1  0
 31 32  1  0
 31 50  1  0
 32 33  2  0
 32 51  1  0
 33 34  1  0
 33 52  1  0
 34 35  1  0
 35 53  1  0
 35 54  1  0
 36 37  1  0
 36 55  1  0
 37 56  1  0
M  CHG  1  23   1
M  END
>  <DOCK_score>  (1) 
-56.322357

>  <SMILES>  (1) 
Fc1ccc(C(Nc2[nH]cc(-c3ccc(C(F)(F)F)cc3)[nH+]2)[C@H]2COc3ccccc3C2)cc1

$$$$
