CNc1ccc([C@@H](Nc2[nH]cc(-c3ccc(Br)cc3)[nH+]2)c2ccccc2)cn1
     RDKit          3D

 49 52  0  0  1  0  0  0  0  0999 V2000
  131.2184  130.2796  154.3138 C   0  0  0  0  0  0  0  0  0  0  0  0
  130.8745  129.9129  155.6898 N   0  0  0  0  0  0  0  0  0  0  0  0
  130.5487  130.9010  156.6115 C   0  0  0  0  0  0  0  0  0  0  0  0
  130.5512  132.2364  156.2207 C   0  0  0  0  0  0  0  0  0  0  0  0
  130.2250  133.2092  157.1481 C   0  0  0  0  0  0  0  0  0  0  0  0
  129.9059  132.8126  158.4403 C   0  0  0  0  0  0  0  0  0  0  0  0
  129.5438  133.8381  159.4836 C   0  0  1  0  0  0  0  0  0  0  0  0
  129.8393  133.4749  160.4678 H   0  0  0  0  0  0  0  0  0  0  0  0
  130.2416  135.0939  159.1967 N   0  0  0  0  0  0  0  0  0  0  0  0
  131.1178  135.6270  160.1266 C   0  0  0  0  0  0  0  0  0  0  0  0
  131.0301  135.4755  161.4762 N   0  0  0  0  0  0  0  0  0  0  0  0
  130.3483  134.9792  161.9555 H   0  0  0  0  0  0  0  0  0  0  0  0
  132.0856  136.1553  162.0343 C   0  0  0  0  0  0  0  0  0  0  0  0
  132.7870  136.7019  161.0107 C   0  0  0  0  0  0  0  0  0  0  0  0
  134.0135  137.5269  161.1355 C   0  0  0  0  0  0  0  0  0  0  0  0
  134.6406  138.0244  159.9944 C   0  0  0  0  0  0  0  0  0  0  0  0
  135.7778  138.7966  160.1163 C   0  0  0  0  0  0  0  0  0  0  0  0
  136.3027  139.0671  161.3682 C   0  0  0  0  0  0  0  0  0  0  0  0
  137.8661  140.1188  161.5272 Br  0  0  0  0  0  0  0  0  0  0  0  0
  135.6869  138.5707  162.5042 C   0  0  0  0  0  0  0  0  0  0  0  0
  134.5459  137.8027  162.3937 C   0  0  0  0  0  0  0  0  0  0  0  0
  132.1718  136.3561  159.8520 N   0  0  0  0  0  0  0  0  0  0  0  0
  132.4640  136.6100  158.9626 H   0  0  0  0  0  0  0  0  0  0  0  0
  128.0556  134.0739  159.4609 C   0  0  0  0  0  0  0  0  0  0  0  0
  127.2219  133.3057  160.2520 C   0  0  0  0  0  0  0  0  0  0  0  0
  125.8572  133.5250  160.2345 C   0  0  0  0  0  0  0  0  0  0  0  0
  125.3252  134.5060  159.4188 C   0  0  0  0  0  0  0  0  0  0  0  0
  126.1584  135.2711  158.6241 C   0  0  0  0  0  0  0  0  0  0  0  0
  127.5236  135.0547  158.6449 C   0  0  0  0  0  0  0  0  0  0  0  0
  129.9235  131.4698  158.7592 C   0  0  0  0  0  0  0  0  0  0  0  0
  130.2334  130.5627  157.8521 N   0  0  0  0  0  0  0  0  0  0  0  0
  130.3792  130.8045  153.8570 H   0  0  0  0  0  0  0  0  0  0  0  0
  132.0938  130.9289  154.3186 H   0  0  0  0  0  0  0  0  0  0  0  0
  131.4378  129.3782  153.7416 H   0  0  0  0  0  0  0  0  0  0  0  0
  130.8703  128.9803  155.9566 H   0  0  0  0  0  0  0  0  0  0  0  0
  130.8047  132.5096  155.2070 H   0  0  0  0  0  0  0  0  0  0  0  0
  130.2189  134.2537  156.8737 H   0  0  0  0  0  0  0  0  0  0  0  0
  130.0897  135.5518  158.3552 H   0  0  0  0  0  0  0  0  0  0  0  0
  132.3133  136.2377  163.0869 H   0  0  0  0  0  0  0  0  0  0  0  0
  134.2349  137.8095  159.0169 H   0  0  0  0  0  0  0  0  0  0  0  0
  136.2619  139.1865  159.2332 H   0  0  0  0  0  0  0  0  0  0  0  0
  136.1005  138.7846  163.4786 H   0  0  0  0  0  0  0  0  0  0  0  0
  134.0659  137.4162  163.2806 H   0  0  0  0  0  0  0  0  0  0  0  0
  127.6371  132.5364  160.8862 H   0  0  0  0  0  0  0  0  0  0  0  0
  125.2062  132.9275  160.8555 H   0  0  0  0  0  0  0  0  0  0  0  0
  124.2587  134.6751  159.4025 H   0  0  0  0  0  0  0  0  0  0  0  0
  125.7428  136.0376  157.9869 H   0  0  0  0  0  0  0  0  0  0  0  0
  128.1745  135.6522  158.0238 H   0  0  0  0  0  0  0  0  0  0  0  0
  129.6760  131.1572  159.7628 H   0  0  0  0  0  0  0  0  0  0  0  0
  1  2  1  0
  1 32  1  0
  1 33  1  0
  1 34  1  0
  2  3  1  0
  2 35  1  0
  3 31  2  0
  3  4  1  0
  4  5  2  0
  4 36  1  0
  5  6  1  0
  5 37  1  0
  6  7  1  0
  6 30  2  0
  7  8  1  1
  7  9  1  0
  7 24  1  0
  9 38  1  0
 10  9  1  0
 10 22  2  0
 10 11  1  0
 11 12  1  0
 11 13  1  0
 13 14  2  0
 13 39  1  0
 14 15  1  0
 14 22  1  0
 15 21  1  0
 15 16  2  0
 16 17  1  0
 16 40  1  0
 17 18  2  0
 17 41  1  0
 18 19  1  0
 18 20  1  0
 20 21  2  0
 20 42  1  0
 21 43  1  0
 22 23  1  0
 24 29  1  0
 24 25  2  0
 25 26  1  0
 25 44  1  0
 26 27  2  0
 26 45  1  0
 27 28  1  0
 27 46  1  0
 28 29  2  0
 28 47  1  0
 29 48  1  0
 30 31  1  0
 30 49  1  0
M  CHG  1  22   1
M  END
>  <DOCK_score>  (1) 
-56.869576

>  <SMILES>  (1) 
CNc1ccc([C@@H](Nc2[nH]cc(-c3ccc(Br)cc3)[nH+]2)c2ccccc2)cn1

$$$$
