O=C(Nc1ccc(C[NH2+]C(Cc2ccccc2F)Cc2ccccc2F)cc1)N1CC2C[C@@H]2C1
     RDKit          3D

 64 68  0  0  1  0  0  0  0  0999 V2000
  129.3961  137.4128  163.1180 O   0  0  0  0  0  0  0  0  0  0  0  0
  128.2678  137.8393  163.2712 C   0  0  0  0  0  0  0  0  0  0  0  0
  127.3574  137.7054  162.2865 N   0  0  0  0  0  0  0  0  0  0  0  0
  127.7106  137.0757  161.0878 C   0  0  0  0  0  0  0  0  0  0  0  0
  126.7533  136.3848  160.3565 C   0  0  0  0  0  0  0  0  0  0  0  0
  127.1049  135.7647  159.1736 C   0  0  0  0  0  0  0  0  0  0  0  0
  128.4085  135.8314  158.7171 C   0  0  0  0  0  0  0  0  0  0  0  0
  128.7888  135.1536  157.4260 C   0  0  0  0  0  0  0  0  0  0  0  0
  130.0499  134.4228  157.6094 N   0  0  0  0  0  0  0  0  0  0  0  0
  130.7772  135.0690  157.8771 H   0  0  0  0  0  0  0  0  0  0  0  0
  130.3044  133.9689  156.7450 H   0  0  0  0  0  0  0  0  0  0  0  0
  129.8812  133.4120  158.6619 C   0  0  0  0  0  0  0  0  0  0  0  0
  131.2534  133.0049  159.2026 C   0  0  0  0  0  0  0  0  0  0  0  0
  131.7342  134.0419  160.1847 C   0  0  0  0  0  0  0  0  0  0  0  0
  132.9142  134.7221  159.9496 C   0  0  0  0  0  0  0  0  0  0  0  0
  133.3553  135.6735  160.8501 C   0  0  0  0  0  0  0  0  0  0  0  0
  132.6168  135.9460  161.9867 C   0  0  0  0  0  0  0  0  0  0  0  0
  131.4367  135.2673  162.2238 C   0  0  0  0  0  0  0  0  0  0  0  0
  130.9939  134.3139  161.3225 C   0  0  0  0  0  0  0  0  0  0  0  0
  129.8400  133.6501  161.5530 F   0  0  0  0  0  0  0  0  0  0  0  0
  129.1770  132.1839  158.0814 C   0  0  0  0  0  0  0  0  0  0  0  0
  130.0079  131.6104  156.9626 C   0  0  0  0  0  0  0  0  0  0  0  0
  130.9584  130.6440  157.2326 C   0  0  0  0  0  0  0  0  0  0  0  0
  131.7206  130.1178  156.2066 C   0  0  0  0  0  0  0  0  0  0  0  0
  131.5333  130.5575  154.9092 C   0  0  0  0  0  0  0  0  0  0  0  0
  130.5840  131.5240  154.6369 C   0  0  0  0  0  0  0  0  0  0  0  0
  129.8156  132.0474  155.6631 C   0  0  0  0  0  0  0  0  0  0  0  0
  128.8829  132.9880  155.3973 F   0  0  0  0  0  0  0  0  0  0  0  0
  129.3652  136.5139  159.4458 C   0  0  0  0  0  0  0  0  0  0  0  0
  129.0188  137.1409  160.6266 C   0  0  0  0  0  0  0  0  0  0  0  0
  127.9277  138.4456  164.4258 N   0  0  0  0  0  0  0  0  0  0  0  0
  126.6134  139.0188  164.7985 C   0  0  0  0  0  0  0  0  0  0  0  0
  126.4302  138.6399  166.2839 C   0  0  2  0  0  0  0  0  0  0  0  0
  127.0078  139.5795  167.3443 C   0  0  0  0  0  0  0  0  0  0  0  0
  127.8610  138.4233  166.8191 C   0  0  2  0  0  0  0  0  0  0  0  0
  128.1073  137.5933  167.4812 H   0  0  0  0  0  0  0  0  0  0  0  0
  128.7816  138.6846  165.6126 C   0  0  0  0  0  0  0  0  0  0  0  0
  126.4573  138.0458  162.4088 H   0  0  0  0  0  0  0  0  0  0  0  0
  125.7350  136.3326  160.7123 H   0  0  0  0  0  0  0  0  0  0  0  0
  126.3609  135.2275  158.6042 H   0  0  0  0  0  0  0  0  0  0  0  0
  128.9138  135.9037  156.6451 H   0  0  0  0  0  0  0  0  0  0  0  0
  128.0031  134.4556  157.1368 H   0  0  0  0  0  0  0  0  0  0  0  0
  129.2803  133.8266  159.4711 H   0  0  0  0  0  0  0  0  0  0  0  0
  131.9616  132.9302  158.3772 H   0  0  0  0  0  0  0  0  0  0  0  0
  131.1752  132.0396  159.7027 H   0  0  0  0  0  0  0  0  0  0  0  0
  133.4895  134.5132  159.0598 H   0  0  0  0  0  0  0  0  0  0  0  0
  134.2776  136.2042  160.6657 H   0  0  0  0  0  0  0  0  0  0  0  0
  132.9625  136.6893  162.6897 H   0  0  0  0  0  0  0  0  0  0  0  0
  130.8599  135.4806  163.1117 H   0  0  0  0  0  0  0  0  0  0  0  0
  129.0519  131.4338  158.8624 H   0  0  0  0  0  0  0  0  0  0  0  0
  128.1994  132.4738  157.6963 H   0  0  0  0  0  0  0  0  0  0  0  0
  131.1058  130.2999  158.2457 H   0  0  0  0  0  0  0  0  0  0  0  0
  132.4633  129.3629  156.4186 H   0  0  0  0  0  0  0  0  0  0  0  0
  132.1295  130.1457  154.1083 H   0  0  0  0  0  0  0  0  0  0  0  0
  130.4382  131.8676  153.6234 H   0  0  0  0  0  0  0  0  0  0  0  0
  130.3835  136.5604  159.0889 H   0  0  0  0  0  0  0  0  0  0  0  0
  129.7656  137.6773  161.1933 H   0  0  0  0  0  0  0  0  0  0  0  0
  126.6244  140.1025  164.6812 H   0  0  0  0  0  0  0  0  0  0  0  0
  125.8214  138.5796  164.1919 H   0  0  0  0  0  0  0  0  0  0  0  0
  125.5937  137.9900  166.5401 H   0  0  0  0  0  0  0  0  0  0  0  0
  127.2783  140.5873  167.0289 H   0  0  0  0  0  0  0  0  0  0  0  0
  126.6163  139.4941  168.3580 H   0  0  0  0  0  0  0  0  0  0  0  0
  129.6232  137.9919  165.6211 H   0  0  0  0  0  0  0  0  0  0  0  0
  129.1362  139.7152  165.6244 H   0  0  0  0  0  0  0  0  0  0  0  0
  1  2  2  0
  2  3  1  0
  2 31  1  0
  3  4  1  0
  3 38  1  0
  4 30  1  0
  4  5  2  0
  5  6  1  0
  5 39  1  0
  6  7  2  0
  6 40  1  0
  7  8  1  0
  7 29  1  0
  8  9  1  0
  8 41  1  0
  8 42  1  0
  9 10  1  0
  9 11  1  0
  9 12  1  0
 12 13  1  0
 12 21  1  0
 12 43  1  0
 13 14  1  0
 13 44  1  0
 13 45  1  0
 14 19  1  0
 14 15  2  0
 15 16  1  0
 15 46  1  0
 16 17  2  0
 16 47  1  0
 17 18  1  0
 17 48  1  0
 18 19  2  0
 18 49  1  0
 19 20  1  0
 21 22  1  0
 21 50  1  0
 21 51  1  0
 22 27  1  0
 22 23  2  0
 23 24  1  0
 23 52  1  0
 24 25  2  0
 24 53  1  0
 25 26  1  0
 25 54  1  0
 26 27  2  0
 26 55  1  0
 27 28  1  0
 29 30  2  0
 29 56  1  0
 30 57  1  0
 31 37  1  0
 31 32  1  0
 32 33  1  0
 32 58  1  0
 32 59  1  0
 33 35  1  0
 33 34  1  0
 33 60  1  1
 34 35  1  0
 34 61  1  0
 34 62  1  0
 35 36  1  1
 35 37  1  0
 37 63  1  0
 37 64  1  0
M  CHG  1   9   1
M  END
>  <DOCK_score>  (1) 
-50.514454

>  <SMILES>  (1) 
O=C(Nc1ccc(C[NH2+]C(Cc2ccccc2F)Cc2ccccc2F)cc1)N1CC2C[C@@H]2C1

$$$$
