CCC=C[C@H](Cc1ccccc1)Nc1[nH]cc(-c2ccc(CC)cc2)[nH+]1
     RDKit          3D

 54 56  0  0  1  0  0  0  0  0999 V2000
  126.1891  133.7821  159.4523 C   0  0  0  0  0  0  0  0  0  0  0  0
  126.5267  135.1970  159.9269 C   0  0  0  0  0  0  0  0  0  0  0  0
  128.0079  135.4347  159.7842 C   0  0  0  0  0  0  0  0  0  0  0  0
  128.8160  135.1461  160.7741 C   0  0  0  0  0  0  0  0  0  0  0  0
  130.2972  135.3839  160.6313 C   0  0  2  0  0  0  0  0  0  0  0  0
  130.8416  134.6583  161.2359 H   0  0  0  0  0  0  0  0  0  0  0  0
  130.6347  136.7987  161.1058 C   0  0  0  0  0  0  0  0  0  0  0  0
  132.1037  136.8823  161.4317 C   0  0  0  0  0  0  0  0  0  0  0  0
  132.5446  136.6028  162.7118 C   0  0  0  0  0  0  0  0  0  0  0  0
  133.8926  136.6748  163.0095 C   0  0  0  0  0  0  0  0  0  0  0  0
  134.7985  137.0362  162.0299 C   0  0  0  0  0  0  0  0  0  0  0  0
  134.3570  137.3207  160.7512 C   0  0  0  0  0  0  0  0  0  0  0  0
  133.0096  137.2437  160.4522 C   0  0  0  0  0  0  0  0  0  0  0  0
  130.6824  135.2352  159.2258 N   0  0  0  0  0  0  0  0  0  0  0  0
  130.4725  134.0321  158.5740 C   0  0  0  0  0  0  0  0  0  0  0  0
  129.9240  132.9160  159.1270 N   0  0  0  0  0  0  0  0  0  0  0  0
  129.6127  132.8213  160.0408 H   0  0  0  0  0  0  0  0  0  0  0  0
  129.8922  131.9488  158.1522 C   0  0  0  0  0  0  0  0  0  0  0  0
  130.4217  132.5008  157.0325 C   0  0  0  0  0  0  0  0  0  0  0  0
  130.5919  131.8256  155.7228 C   0  0  0  0  0  0  0  0  0  0  0  0
  129.9636  132.3337  154.5870 C   0  0  0  0  0  0  0  0  0  0  0  0
  130.1259  131.7016  153.3710 C   0  0  0  0  0  0  0  0  0  0  0  0
  130.9100  130.5651  153.2784 C   0  0  0  0  0  0  0  0  0  0  0  0
  131.0829  129.8791  151.9478 C   0  0  0  0  0  0  0  0  0  0  0  0
  129.9818  128.8326  151.7667 C   0  0  0  0  0  0  0  0  0  0  0  0
  131.5311  130.0537  154.4030 C   0  0  0  0  0  0  0  0  0  0  0  0
  131.3809  130.6810  155.6231 C   0  0  0  0  0  0  0  0  0  0  0  0
  130.7735  133.7783  157.3238 N   0  0  0  0  0  0  0  0  0  0  0  0
  131.1805  134.4047  156.7049 H   0  0  0  0  0  0  0  0  0  0  0  0
  125.1177  133.6101  159.5555 H   0  0  0  0  0  0  0  0  0  0  0  0
  126.4758  133.6716  158.4065 H   0  0  0  0  0  0  0  0  0  0  0  0
  126.7335  133.0566  160.0568 H   0  0  0  0  0  0  0  0  0  0  0  0
  126.2399  135.3075  160.9727 H   0  0  0  0  0  0  0  0  0  0  0  0
  125.9822  135.9224  159.3223 H   0  0  0  0  0  0  0  0  0  0  0  0
  128.4033  135.8431  158.8658 H   0  0  0  0  0  0  0  0  0  0  0  0
  128.4205  134.7378  161.6923 H   0  0  0  0  0  0  0  0  0  0  0  0
  130.3963  137.5128  160.3176 H   0  0  0  0  0  0  0  0  0  0  0  0
  130.0511  137.0321  161.9963 H   0  0  0  0  0  0  0  0  0  0  0  0
  131.8364  136.3247  163.4782 H   0  0  0  0  0  0  0  0  0  0  0  0
  134.2375  136.4528  164.0086 H   0  0  0  0  0  0  0  0  0  0  0  0
  135.8511  137.0967  162.2637 H   0  0  0  0  0  0  0  0  0  0  0  0
  135.0646  137.6035  159.9860 H   0  0  0  0  0  0  0  0  0  0  0  0
  132.6645  137.4663  159.4532 H   0  0  0  0  0  0  0  0  0  0  0  0
  131.0847  135.9799  158.7517 H   0  0  0  0  0  0  0  0  0  0  0  0
  129.5173  130.9414  158.2574 H   0  0  0  0  0  0  0  0  0  0  0  0
  129.3509  133.2201  154.6585 H   0  0  0  0  0  0  0  0  0  0  0  0
  129.6396  132.0943  152.4903 H   0  0  0  0  0  0  0  0  0  0  0  0
  132.0569  129.3920  151.9139 H   0  0  0  0  0  0  0  0  0  0  0  0
  131.0176  130.6170  151.1474 H   0  0  0  0  0  0  0  0  0  0  0  0
  130.1068  128.3363  150.8043 H   0  0  0  0  0  0  0  0  0  0  0  0
  130.0467  128.0952  152.5668 H   0  0  0  0  0  0  0  0  0  0  0  0
  129.0076  129.3201  151.8002 H   0  0  0  0  0  0  0  0  0  0  0  0
  132.1382  129.1638  154.3257 H   0  0  0  0  0  0  0  0  0  0  0  0
  131.8702  130.2833  156.4999 H   0  0  0  0  0  0  0  0  0  0  0  0
  1  2  1  0
  1 30  1  0
  1 31  1  0
  1 32  1  0
  2  3  1  0
  2 33  1  0
  2 34  1  0
  3  4  2  0
  3 35  1  0
  4  5  1  0
  4 36  1  0
  5  6  1  1
  5  7  1  0
  5 14  1  0
  7  8  1  0
  7 37  1  0
  7 38  1  0
  8 13  1  0
  8  9  2  0
  9 10  1  0
  9 39  1  0
 10 11  2  0
 10 40  1  0
 11 12  1  0
 11 41  1  0
 12 13  2  0
 12 42  1  0
 13 43  1  0
 14 44  1  0
 15 14  1  0
 15 28  2  0
 15 16  1  0
 16 17  1  0
 16 18  1  0
 18 19  2  0
 18 45  1  0
 19 20  1  0
 19 28  1  0
 20 27  1  0
 20 21  2  0
 21 22  1  0
 21 46  1  0
 22 23  2  0
 22 47  1  0
 23 24  1  0
 23 26  1  0
 24 25  1  0
 24 48  1  0
 24 49  1  0
 25 50  1  0
 25 51  1  0
 25 52  1  0
 26 27  2  0
 26 53  1  0
 27 54  1  0
 28 29  1  0
M  CHG  1  28   1
M  END
>  <DOCK_score>  (1) 
-58.24868

>  <SMILES>  (1) 
CCC=C[C@H](Cc1ccccc1)Nc1[nH]cc(-c2ccc(CC)cc2)[nH+]1

$$$$
