CCc1ccc(-c2c[nH]c(N[C@@H](CCc3cccc4ccccc34)c3cn(C)cn3)[nH+]2)cc1
     RDKit          3D

 63 67  0  0  1  0  0  0  0  0999 V2000
  130.3689  128.1867  151.7098 C   0  0  0  0  0  0  0  0  0  0  0  0
  131.3425  129.3589  151.8458 C   0  0  0  0  0  0  0  0  0  0  0  0
  131.0607  130.1000  153.1273 C   0  0  0  0  0  0  0  0  0  0  0  0
  131.7055  129.7298  154.2933 C   0  0  0  0  0  0  0  0  0  0  0  0
  131.4549  130.4081  155.4688 C   0  0  0  0  0  0  0  0  0  0  0  0
  130.5421  131.4613  155.4817 C   0  0  0  0  0  0  0  0  0  0  0  0
  130.2649  132.1908  156.7431 C   0  0  0  0  0  0  0  0  0  0  0  0
  129.7764  131.6501  157.8868 C   0  0  0  0  0  0  0  0  0  0  0  0
  129.6744  132.6721  158.7990 N   0  0  0  0  0  0  0  0  0  0  0  0
  129.3549  132.5975  159.7119 H   0  0  0  0  0  0  0  0  0  0  0  0
  130.1039  133.8085  158.1855 C   0  0  0  0  0  0  0  0  0  0  0  0
  130.1592  135.0652  158.7634 N   0  0  0  0  0  0  0  0  0  0  0  0
  129.7321  135.2523  160.1523 C   0  0  1  0  0  0  0  0  0  0  0  0
  130.0732  134.4098  160.7539 H   0  0  0  0  0  0  0  0  0  0  0  0
  130.3340  136.5476  160.7009 C   0  0  0  0  0  0  0  0  0  0  0  0
  130.3230  136.5072  162.2303 C   0  0  0  0  0  0  0  0  0  0  0  0
  130.9159  137.7829  162.7707 C   0  0  0  0  0  0  0  0  0  0  0  0
  132.2539  137.8700  163.0055 C   0  0  0  0  0  0  0  0  0  0  0  0
  132.8201  139.0414  163.5040 C   0  0  0  0  0  0  0  0  0  0  0  0
  132.0516  140.1327  163.7712 C   0  0  0  0  0  0  0  0  0  0  0  0
  130.6664  140.0806  163.5421 C   0  0  0  0  0  0  0  0  0  0  0  0
  129.8405  141.1867  163.8063 C   0  0  0  0  0  0  0  0  0  0  0  0
  128.5029  141.0993  163.5723 C   0  0  0  0  0  0  0  0  0  0  0  0
  127.9363  139.9275  163.0740 C   0  0  0  0  0  0  0  0  0  0  0  0
  128.7046  138.8364  162.8068 C   0  0  0  0  0  0  0  0  0  0  0  0
  130.0912  138.8908  163.0295 C   0  0  0  0  0  0  0  0  0  0  0  0
  128.2283  135.3337  160.2088 C   0  0  0  0  0  0  0  0  0  0  0  0
  127.4160  134.5040  160.8908 C   0  0  0  0  0  0  0  0  0  0  0  0
  126.1353  134.9344  160.6707 N   0  0  0  0  0  0  0  0  0  0  0  0
  124.9122  134.3366  161.2122 C   0  0  0  0  0  0  0  0  0  0  0  0
  126.2098  136.0128  159.8613 C   0  0  0  0  0  0  0  0  0  0  0  0
  127.4650  136.2489  159.5933 N   0  0  0  0  0  0  0  0  0  0  0  0
  130.4606  133.5158  156.9588 N   0  0  0  0  0  0  0  0  0  0  0  0
  130.8075  134.1464  156.3083 H   0  0  0  0  0  0  0  0  0  0  0  0
  129.8913  131.8268  154.3047 C   0  0  0  0  0  0  0  0  0  0  0  0
  130.1536  131.1449  153.1339 C   0  0  0  0  0  0  0  0  0  0  0  0
  130.5728  127.6506  150.7829 H   0  0  0  0  0  0  0  0  0  0  0  0
  130.4945  127.5106  152.5556 H   0  0  0  0  0  0  0  0  0  0  0  0
  129.3463  128.5633  151.6945 H   0  0  0  0  0  0  0  0  0  0  0  0
  132.3651  128.9827  151.8609 H   0  0  0  0  0  0  0  0  0  0  0  0
  131.2167  130.0354  150.9997 H   0  0  0  0  0  0  0  0  0  0  0  0
  132.4094  128.9107  154.2832 H   0  0  0  0  0  0  0  0  0  0  0  0
  131.9625  130.1209  156.3779 H   0  0  0  0  0  0  0  0  0  0  0  0
  129.5169  130.6144  158.0493 H   0  0  0  0  0  0  0  0  0  0  0  0
  130.4806  135.8219  158.2488 H   0  0  0  0  0  0  0  0  0  0  0  0
  131.3601  136.6496  160.3476 H   0  0  0  0  0  0  0  0  0  0  0  0
  129.7446  137.3968  160.3555 H   0  0  0  0  0  0  0  0  0  0  0  0
  129.2970  136.4051  162.5837 H   0  0  0  0  0  0  0  0  0  0  0  0
  130.9124  135.6578  162.5758 H   0  0  0  0  0  0  0  0  0  0  0  0
  132.8861  137.0184  162.8019 H   0  0  0  0  0  0  0  0  0  0  0  0
  133.8846  139.0841  163.6813 H   0  0  0  0  0  0  0  0  0  0  0  0
  132.5043  141.0340  164.1577 H   0  0  0  0  0  0  0  0  0  0  0  0
  130.2654  142.1012  164.1933 H   0  0  0  0  0  0  0  0  0  0  0  0
  127.8705  141.9509  163.7762 H   0  0  0  0  0  0  0  0  0  0  0  0
  126.8717  139.8845  162.8974 H   0  0  0  0  0  0  0  0  0  0  0  0
  128.2517  137.9350  162.4207 H   0  0  0  0  0  0  0  0  0  0  0  0
  127.7170  133.6613  161.4954 H   0  0  0  0  0  0  0  0  0  0  0  0
  124.6736  134.8012  162.1689 H   0  0  0  0  0  0  0  0  0  0  0  0
  124.0898  134.4974  160.5150 H   0  0  0  0  0  0  0  0  0  0  0  0
  125.0633  133.2667  161.3554 H   0  0  0  0  0  0  0  0  0  0  0  0
  125.3700  136.5874  159.4994 H   0  0  0  0  0  0  0  0  0  0  0  0
  129.1828  132.6419  154.3089 H   0  0  0  0  0  0  0  0  0  0  0  0
  129.6495  131.4270  152.2214 H   0  0  0  0  0  0  0  0  0  0  0  0
  1  2  1  0
  1 37  1  0
  1 38  1  0
  1 39  1  0
  2  3  1  0
  2 40  1  0
  2 41  1  0
  3 36  2  0
  3  4  1  0
  4  5  2  0
  4 42  1  0
  5  6  1  0
  5 43  1  0
  6  7  1  0
  6 35  2  0
  7 33  1  0
  7  8  2  0
  8  9  1  0
  8 44  1  0
  9 10  1  0
  9 11  1  0
 11 12  1  0
 11 33  2  0
 12 13  1  0
 12 45  1  0
 13 14  1  1
 13 15  1  0
 13 27  1  0
 15 16  1  0
 15 46  1  0
 15 47  1  0
 16 17  1  0
 16 48  1  0
 16 49  1  0
 17 26  1  0
 17 18  2  0
 18 19  1  0
 18 50  1  0
 19 20  2  0
 19 51  1  0
 20 21  1  0
 20 52  1  0
 21 26  2  0
 21 22  1  0
 22 23  2  0
 22 53  1  0
 23 24  1  0
 23 54  1  0
 24 25  2  0
 24 55  1  0
 25 26  1  0
 25 56  1  0
 27 32  1  0
 27 28  2  0
 28 29  1  0
 28 57  1  0
 29 30  1  0
 29 31  1  0
 30 58  1  0
 30 59  1  0
 30 60  1  0
 31 32  2  0
 31 61  1  0
 33 34  1  0
 35 36  1  0
 35 62  1  0
 36 63  1  0
M  CHG  1  33   1
M  END
>  <DOCK_score>  (1) 
-57.361153

>  <SMILES>  (1) 
CCc1ccc(-c2c[nH]c(N[C@@H](CCc3cccc4ccccc34)c3cn(C)cn3)[nH+]2)cc1

$$$$
