Cc1ccccc1CCC[NH+]=C(NC1CC=CC1)N[C@H]1CCC(=O)NC1
     RDKit          3D

 57 59  0  0  1  0  0  0  0  0999 V2000
  131.2361  138.7978  161.8106 C   0  0  0  0  0  0  0  0  0  0  0  0
  132.6965  138.9769  161.4845 C   0  0  0  0  0  0  0  0  0  0  0  0
  133.1971  140.2393  161.2257 C   0  0  0  0  0  0  0  0  0  0  0  0
  134.5355  140.4031  160.9220 C   0  0  0  0  0  0  0  0  0  0  0  0
  135.3744  139.3048  160.8808 C   0  0  0  0  0  0  0  0  0  0  0  0
  134.8746  138.0432  161.1431 C   0  0  0  0  0  0  0  0  0  0  0  0
  133.5360  137.8796  161.4479 C   0  0  0  0  0  0  0  0  0  0  0  0
  132.9912  136.5040  161.7341 C   0  0  0  0  0  0  0  0  0  0  0  0
  132.5154  135.8622  160.4292 C   0  0  0  0  0  0  0  0  0  0  0  0
  131.9622  134.4656  160.7199 C   0  0  0  0  0  0  0  0  0  0  0  0
  131.5066  133.8512  159.4704 N   0  0  0  0  0  0  0  0  0  0  0  0
  132.1203  133.3204  158.9390 H   0  0  0  0  0  0  0  0  0  0  0  0
  130.2765  134.0178  159.0729 C   0  0  0  0  0  0  0  0  0  0  0  0
  129.8490  133.4412  157.9003 N   0  0  0  0  0  0  0  0  0  0  0  0
  130.7760  132.6395  157.0978 C   0  0  0  0  0  0  0  0  0  0  0  0
  131.1509  131.3285  157.8272 C   0  0  0  0  0  0  0  0  0  0  0  0
  131.2394  130.2893  156.7337 C   0  0  0  0  0  0  0  0  0  0  0  0
  130.6567  130.7049  155.6422 C   0  0  0  0  0  0  0  0  0  0  0  0
  130.0825  132.0904  155.8257 C   0  0  0  0  0  0  0  0  0  0  0  0
  129.4066  134.7704  159.8260 N   0  0  0  0  0  0  0  0  0  0  0  0
  127.9736  134.4662  159.8120 C   0  0  1  0  0  0  0  0  0  0  0  0
  127.5897  134.5608  158.7961 H   0  0  0  0  0  0  0  0  0  0  0  0
  127.7458  133.0378  160.3209 C   0  0  0  0  0  0  0  0  0  0  0  0
  126.2696  132.6839  160.1248 C   0  0  0  0  0  0  0  0  0  0  0  0
  125.4038  133.7861  160.6638 C   0  0  0  0  0  0  0  0  0  0  0  0
  124.2369  133.5424  160.8871 O   0  0  0  0  0  0  0  0  0  0  0  0
  125.8493  135.0188  160.9096 N   0  0  0  0  0  0  0  0  0  0  0  0
  127.2340  135.4379  160.7324 C   0  0  0  0  0  0  0  0  0  0  0  0
  131.0916  138.8801  162.8878 H   0  0  0  0  0  0  0  0  0  0  0  0
  130.6539  139.5687  161.3059 H   0  0  0  0  0  0  0  0  0  0  0  0
  130.9066  137.8148  161.4739 H   0  0  0  0  0  0  0  0  0  0  0  0
  132.5418  141.0972  161.2577 H   0  0  0  0  0  0  0  0  0  0  0  0
  134.9259  141.3889  160.7166 H   0  0  0  0  0  0  0  0  0  0  0  0
  136.4201  139.4328  160.6430 H   0  0  0  0  0  0  0  0  0  0  0  0
  135.5299  137.1854  161.1106 H   0  0  0  0  0  0  0  0  0  0  0  0
  132.1535  136.5820  162.4273 H   0  0  0  0  0  0  0  0  0  0  0  0
  133.7737  135.8883  162.1777 H   0  0  0  0  0  0  0  0  0  0  0  0
  133.3530  135.7843  159.7362 H   0  0  0  0  0  0  0  0  0  0  0  0
  131.7328  136.4780  159.9857 H   0  0  0  0  0  0  0  0  0  0  0  0
  131.1246  134.5435  161.4130 H   0  0  0  0  0  0  0  0  0  0  0  0
  132.7448  133.8500  161.1633 H   0  0  0  0  0  0  0  0  0  0  0  0
  128.9336  133.5652  157.6044 H   0  0  0  0  0  0  0  0  0  0  0  0
  131.6666  133.2134  156.8419 H   0  0  0  0  0  0  0  0  0  0  0  0
  130.3768  131.0588  158.5456 H   0  0  0  0  0  0  0  0  0  0  0  0
  132.1130  131.4348  158.3287 H   0  0  0  0  0  0  0  0  0  0  0  0
  131.7211  129.3288  156.8414 H   0  0  0  0  0  0  0  0  0  0  0  0
  130.5931  130.1333  154.7281 H   0  0  0  0  0  0  0  0  0  0  0  0
  130.3185  132.7163  154.9649 H   0  0  0  0  0  0  0  0  0  0  0  0
  129.0036  132.0382  155.9717 H   0  0  0  0  0  0  0  0  0  0  0  0
  129.7418  135.5025  160.3668 H   0  0  0  0  0  0  0  0  0  0  0  0
  128.3678  132.3435  159.7563 H   0  0  0  0  0  0  0  0  0  0  0  0
  127.9990  132.9807  161.3795 H   0  0  0  0  0  0  0  0  0  0  0  0
  126.0464  131.7569  160.6532 H   0  0  0  0  0  0  0  0  0  0  0  0
  126.0672  132.5511  159.0621 H   0  0  0  0  0  0  0  0  0  0  0  0
  125.2119  135.6778  161.2264 H   0  0  0  0  0  0  0  0  0  0  0  0
  127.7298  135.4631  161.7028 H   0  0  0  0  0  0  0  0  0  0  0  0
  127.2552  136.4358  160.2945 H   0  0  0  0  0  0  0  0  0  0  0  0
  1  2  1  0
  1 29  1  0
  1 30  1  0
  1 31  1  0
  2  7  2  0
  2  3  1  0
  3  4  2  0
  3 32  1  0
  4  5  1  0
  4 33  1  0
  5  6  2  0
  5 34  1  0
  6  7  1  0
  6 35  1  0
  7  8  1  0
  8  9  1  0
  8 36  1  0
  8 37  1  0
  9 10  1  0
  9 38  1  0
  9 39  1  0
 10 11  1  0
 10 40  1  0
 10 41  1  0
 11 12  1  0
 13 11  2  0
 13 14  1  0
 13 20  1  0
 14 15  1  0
 14 42  1  0
 15 19  1  0
 15 16  1  0
 15 43  1  0
 16 17  1  0
 16 44  1  0
 16 45  1  0
 17 18  2  0
 17 46  1  0
 18 19  1  0
 18 47  1  0
 19 48  1  0
 19 49  1  0
 20 21  1  0
 20 50  1  0
 21 22  1  6
 21 28  1  0
 21 23  1  0
 23 24  1  0
 23 51  1  0
 23 52  1  0
 24 25  1  0
 24 53  1  0
 24 54  1  0
 25 26  2  0
 25 27  1  0
 27 28  1  0
 27 55  1  0
 28 56  1  0
 28 57  1  0
M  CHG  1  11   1
M  END
>  <DOCK_score>  (1) 
-43.879467

>  <SMILES>  (1) 
Cc1ccccc1CCC[NH+]=C(NC1CC=CC1)N[C@H]1CCC(=O)NC1

$$$$
