CC(=O)C[C@H](Nc1[nH]cc(-c2ccc(-c3ccccc3)cc2)[nH+]1)c1ccccc1
     RDKit          3D

 53 56  0  0  1  0  0  0  0  0999 V2000
  134.1564  138.6004  162.1095 C   0  0  0  0  0  0  0  0  0  0  0  0
  133.4266  137.3278  161.7649 C   0  0  0  0  0  0  0  0  0  0  0  0
  134.0474  136.3130  161.5573 O   0  0  0  0  0  0  0  0  0  0  0  0
  131.9217  137.3201  161.6851 C   0  0  0  0  0  0  0  0  0  0  0  0
  131.4374  135.9152  161.3212 C   0  0  2  0  0  0  0  0  0  0  0  0
  132.0349  135.1754  161.8540 H   0  0  0  0  0  0  0  0  0  0  0  0
  131.5783  135.7089  159.8775 N   0  0  0  0  0  0  0  0  0  0  0  0
  131.2016  134.5034  159.3107 C   0  0  0  0  0  0  0  0  0  0  0  0
  130.6839  133.4390  159.9826 N   0  0  0  0  0  0  0  0  0  0  0  0
  130.5144  133.3889  160.9364 H   0  0  0  0  0  0  0  0  0  0  0  0
  130.4458  132.4487  159.0610 C   0  0  0  0  0  0  0  0  0  0  0  0
  130.8249  132.9360  157.8529 C   0  0  0  0  0  0  0  0  0  0  0  0
  130.7510  132.2157  156.5594 C   0  0  0  0  0  0  0  0  0  0  0  0
  129.9766  132.7285  155.5186 C   0  0  0  0  0  0  0  0  0  0  0  0
  129.9115  132.0614  154.3155 C   0  0  0  0  0  0  0  0  0  0  0  0
  130.6111  130.8685  154.1406 C   0  0  0  0  0  0  0  0  0  0  0  0
  130.5362  130.1464  152.8474 C   0  0  0  0  0  0  0  0  0  0  0  0
  130.6649  128.7590  152.8118 C   0  0  0  0  0  0  0  0  0  0  0  0
  130.5897  128.0925  151.6056 C   0  0  0  0  0  0  0  0  0  0  0  0
  130.3972  128.7998  150.4324 C   0  0  0  0  0  0  0  0  0  0  0  0
  130.2735  130.1772  150.4613 C   0  0  0  0  0  0  0  0  0  0  0  0
  130.3423  130.8538  151.6623 C   0  0  0  0  0  0  0  0  0  0  0  0
  131.3818  130.3523  155.1832 C   0  0  0  0  0  0  0  0  0  0  0  0
  131.4510  131.0219  156.3848 C   0  0  0  0  0  0  0  0  0  0  0  0
  131.2796  134.2011  158.0378 N   0  0  0  0  0  0  0  0  0  0  0  0
  131.6113  134.7872  157.3398 H   0  0  0  0  0  0  0  0  0  0  0  0
  129.9894  135.7664  161.7108 C   0  0  0  0  0  0  0  0  0  0  0  0
  129.6565  135.2987  162.9684 C   0  0  0  0  0  0  0  0  0  0  0  0
  128.3281  135.1664  163.3273 C   0  0  0  0  0  0  0  0  0  0  0  0
  127.3327  135.4932  162.4256 C   0  0  0  0  0  0  0  0  0  0  0  0
  127.6655  135.9560  161.1662 C   0  0  0  0  0  0  0  0  0  0  0  0
  128.9938  136.0924  160.8088 C   0  0  0  0  0  0  0  0  0  0  0  0
  134.3884  139.1455  161.1947 H   0  0  0  0  0  0  0  0  0  0  0  0
  133.5273  139.2177  162.7509 H   0  0  0  0  0  0  0  0  0  0  0  0
  135.0816  138.3584  162.6327 H   0  0  0  0  0  0  0  0  0  0  0  0
  131.5054  137.6093  162.6500 H   0  0  0  0  0  0  0  0  0  0  0  0
  131.5948  138.0263  160.9219 H   0  0  0  0  0  0  0  0  0  0  0  0
  131.9355  136.4169  159.3190 H   0  0  0  0  0  0  0  0  0  0  0  0
  130.0353  131.4698  159.2600 H   0  0  0  0  0  0  0  0  0  0  0  0
  129.4313  133.6508  155.6551 H   0  0  0  0  0  0  0  0  0  0  0  0
  129.3148  132.4605  153.5084 H   0  0  0  0  0  0  0  0  0  0  0  0
  130.8196  128.2062  153.7266 H   0  0  0  0  0  0  0  0  0  0  0  0
  130.6852  127.0171  151.5773 H   0  0  0  0  0  0  0  0  0  0  0  0
  130.3435  128.2744  149.4904 H   0  0  0  0  0  0  0  0  0  0  0  0
  130.1234  130.7242  149.5423 H   0  0  0  0  0  0  0  0  0  0  0  0
  130.2464  131.9293  151.6835 H   0  0  0  0  0  0  0  0  0  0  0  0
  131.9237  129.4280  155.0479 H   0  0  0  0  0  0  0  0  0  0  0  0
  132.0476  130.6226  157.1917 H   0  0  0  0  0  0  0  0  0  0  0  0
  130.4343  135.0398  163.6715 H   0  0  0  0  0  0  0  0  0  0  0  0
  128.0681  134.8051  164.3114 H   0  0  0  0  0  0  0  0  0  0  0  0
  126.2948  135.3873  162.7052 H   0  0  0  0  0  0  0  0  0  0  0  0
  126.8878  136.2113  160.4618 H   0  0  0  0  0  0  0  0  0  0  0  0
  129.2538  136.4540  159.8249 H   0  0  0  0  0  0  0  0  0  0  0  0
  1  2  1  0
  1 33  1  0
  1 34  1  0
  1 35  1  0
  2  3  2  0
  2  4  1  0
  4  5  1  0
  4 36  1  0
  4 37  1  0
  5  6  1  1
  5  7  1  0
  5 27  1  0
  7 38  1  0
  8  7  1  0
  8 25  2  0
  8  9  1  0
  9 10  1  0
  9 11  1  0
 11 12  2  0
 11 39  1  0
 12 13  1  0
 12 25  1  0
 13 24  1  0
 13 14  2  0
 14 15  1  0
 14 40  1  0
 15 16  2  0
 15 41  1  0
 16 17  1  0
 16 23  1  0
 17 22  1  0
 17 18  2  0
 18 19  1  0
 18 42  1  0
 19 20  2  0
 19 43  1  0
 20 21  1  0
 20 44  1  0
 21 22  2  0
 21 45  1  0
 22 46  1  0
 23 24  2  0
 23 47  1  0
 24 48  1  0
 25 26  1  0
 27 32  1  0
 27 28  2  0
 28 29  1  0
 28 49  1  0
 29 30  2  0
 29 50  1  0
 30 31  1  0
 30 51  1  0
 31 32  2  0
 31 52  1  0
 32 53  1  0
M  CHG  1  25   1
M  END
>  <DOCK_score>  (1) 
-58.823601

>  <SMILES>  (1) 
CC(=O)C[C@H](Nc1[nH]cc(-c2ccc(-c3ccccc3)cc2)[nH+]1)c1ccccc1

$$$$
