Cc1[nH]c(Br)nc1S[C@@H](CNc1[nH]cc(-c2ccccc2)[nH+]1)Sc1ccccc1
     RDKit          3D

 50 53  0  0  1  0  0  0  0  0999 V2000
  130.6138  132.0079  154.6104 C   0  0  0  0  0  0  0  0  0  0  0  0
  130.3304  131.5813  156.0277 C   0  0  0  0  0  0  0  0  0  0  0  0
  130.5862  130.3481  156.5811 N   0  0  0  0  0  0  0  0  0  0  0  0
  130.9850  129.5868  156.1312 H   0  0  0  0  0  0  0  0  0  0  0  0
  130.1739  130.3936  157.8657 C   0  0  0  0  0  0  0  0  0  0  0  0
  130.2766  128.9693  159.1052 Br  0  0  0  0  0  0  0  0  0  0  0  0
  129.6919  131.5827  158.1124 N   0  0  0  0  0  0  0  0  0  0  0  0
  129.7771  132.3369  157.0030 C   0  0  0  0  0  0  0  0  0  0  0  0
  129.2536  134.0120  156.8454 S   0  0  0  0  0  0  0  0  0  0  0  0
  128.6202  134.3990  158.5005 C   0  0  1  0  0  0  0  0  0  0  0  0
  127.7988  133.7244  158.7421 H   0  0  0  0  0  0  0  0  0  0  0  0
  129.7403  134.2273  159.5284 C   0  0  0  0  0  0  0  0  0  0  0  0
  130.8442  135.1341  159.2036 N   0  0  0  0  0  0  0  0  0  0  0  0
  131.6469  135.6369  160.2133 C   0  0  0  0  0  0  0  0  0  0  0  0
  131.5108  135.3707  161.5409 N   0  0  0  0  0  0  0  0  0  0  0  0
  130.8399  134.7994  161.9465 H   0  0  0  0  0  0  0  0  0  0  0  0
  132.5007  136.0578  162.2004 C   0  0  0  0  0  0  0  0  0  0  0  0
  133.2075  136.7303  161.2586 C   0  0  0  0  0  0  0  0  0  0  0  0
  134.3735  137.6130  161.5069 C   0  0  0  0  0  0  0  0  0  0  0  0
  134.6322  138.6860  160.6559 C   0  0  0  0  0  0  0  0  0  0  0  0
  135.7149  139.5076  160.8954 C   0  0  0  0  0  0  0  0  0  0  0  0
  136.5495  139.2605  161.9704 C   0  0  0  0  0  0  0  0  0  0  0  0
  136.3008  138.1936  162.8150 C   0  0  0  0  0  0  0  0  0  0  0  0
  135.2176  137.3691  162.5888 C   0  0  0  0  0  0  0  0  0  0  0  0
  132.6599  136.4521  160.0488 N   0  0  0  0  0  0  0  0  0  0  0  0
  132.9686  136.8011  159.1980 H   0  0  0  0  0  0  0  0  0  0  0  0
  128.0253  136.1124  158.5349 S   0  0  0  0  0  0  0  0  0  0  0  0
  128.0190  136.4954  160.2548 C   0  0  0  0  0  0  0  0  0  0  0  0
  127.2373  135.7521  161.1311 C   0  0  0  0  0  0  0  0  0  0  0  0
  127.2306  136.0588  162.4774 C   0  0  0  0  0  0  0  0  0  0  0  0
  128.0085  137.0976  162.9556 C   0  0  0  0  0  0  0  0  0  0  0  0
  128.7875  137.8395  162.0865 C   0  0  0  0  0  0  0  0  0  0  0  0
  128.7953  137.5418  160.7382 C   0  0  0  0  0  0  0  0  0  0  0  0
  131.6172  132.4299  154.5518 H   0  0  0  0  0  0  0  0  0  0  0  0
  130.5439  131.1437  153.9499 H   0  0  0  0  0  0  0  0  0  0  0  0
  129.8854  132.7589  154.3044 H   0  0  0  0  0  0  0  0  0  0  0  0
  129.3596  134.4600  160.5229 H   0  0  0  0  0  0  0  0  0  0  0  0
  130.0977  133.1979  159.5078 H   0  0  0  0  0  0  0  0  0  0  0  0
  131.0126  135.3824  158.2812 H   0  0  0  0  0  0  0  0  0  0  0  0
  132.6790  136.0648  163.2657 H   0  0  0  0  0  0  0  0  0  0  0  0
  133.9839  138.8769  159.8135 H   0  0  0  0  0  0  0  0  0  0  0  0
  135.9134  140.3425  160.2396 H   0  0  0  0  0  0  0  0  0  0  0  0
  137.3985  139.9033  162.1512 H   0  0  0  0  0  0  0  0  0  0  0  0
  136.9555  138.0057  163.6532 H   0  0  0  0  0  0  0  0  0  0  0  0
  135.0242  136.5365  163.2491 H   0  0  0  0  0  0  0  0  0  0  0  0
  126.6326  134.9384  160.7589 H   0  0  0  0  0  0  0  0  0  0  0  0
  126.6202  135.4843  163.1583 H   0  0  0  0  0  0  0  0  0  0  0  0
  128.0040  137.3328  164.0097 H   0  0  0  0  0  0  0  0  0  0  0  0
  129.3902  138.6529  162.4628 H   0  0  0  0  0  0  0  0  0  0  0  0
  129.4036  138.1218  160.0600 H   0  0  0  0  0  0  0  0  0  0  0  0
  1  2  1  0
  1 34  1  0
  1 35  1  0
  1 36  1  0
  2  8  2  0
  2  3  1  0
  3  4  1  0
  3  5  1  0
  5  6  1  0
  5  7  2  0
  7  8  1  0
  8  9  1  0
  9 10  1  0
 10 11  1  1
 10 12  1  0
 10 27  1  0
 12 13  1  0
 12 37  1  0
 12 38  1  0
 13 39  1  0
 14 13  1  0
 14 25  2  0
 14 15  1  0
 15 16  1  0
 15 17  1  0
 17 18  2  0
 17 40  1  0
 18 19  1  0
 18 25  1  0
 19 24  1  0
 19 20  2  0
 20 21  1  0
 20 41  1  0
 21 22  2  0
 21 42  1  0
 22 23  1  0
 22 43  1  0
 23 24  2  0
 23 44  1  0
 24 45  1  0
 25 26  1  0
 27 28  1  0
 28 33  1  0
 28 29  2  0
 29 30  1  0
 29 46  1  0
 30 31  2  0
 30 47  1  0
 31 32  1  0
 31 48  1  0
 32 33  2  0
 32 49  1  0
 33 50  1  0
M  CHG  1  25   1
M  END
>  <DOCK_score>  (1) 
-57.551426

>  <SMILES>  (1) 
Cc1[nH]c(Br)nc1S[C@@H](CNc1[nH]cc(-c2ccccc2)[nH+]1)Sc1ccccc1

$$$$
