CO[C@H]1CC(NC(CC#N)Nc2c(N)ccc(Nc3[nH]c4c(N)cccc4[nH+]3)c2C)C1(C)C
     RDKit          3D

 66 69  0  0  1  0  0  0  0  0999 V2000
  135.0211  141.2651  161.6078 C   0  0  0  0  0  0  0  0  0  0  0  0
  133.9213  140.3883  161.3553 O   0  0  0  0  0  0  0  0  0  0  0  0
  132.8302  140.5478  162.2641 C   0  0  1  0  0  0  0  0  0  0  0  0
  132.6317  141.5914  162.5081 H   0  0  0  0  0  0  0  0  0  0  0  0
  131.5736  139.7574  161.8627 C   0  0  0  0  0  0  0  0  0  0  0  0
  131.3985  139.4303  163.3550 C   0  0  1  0  0  0  0  0  0  0  0  0
  130.9625  138.0505  163.6078 N   0  0  0  0  0  0  0  0  0  0  0  0
  129.5151  137.9092  163.3994 C   0  0  2  0  0  0  0  0  0  0  0  0
  128.7697  138.4248  164.6319 C   0  0  0  0  0  0  0  0  0  0  0  0
  129.1740  137.6439  165.8123 C   0  0  0  0  0  0  0  0  0  0  0  0
  129.4859  137.0409  166.7231 N   0  0  0  0  0  0  0  0  0  0  0  0
  129.1871  136.4934  163.1854 N   0  0  0  0  0  0  0  0  0  0  0  0
  128.5912  136.2999  161.9335 C   0  0  0  0  0  0  0  0  0  0  0  0
  127.2051  136.3815  161.7994 C   0  0  0  0  0  0  0  0  0  0  0  0
  126.4065  136.6576  162.9193 N   0  0  0  0  0  0  0  0  0  0  0  0
  126.6179  136.1949  160.5580 C   0  0  0  0  0  0  0  0  0  0  0  0
  127.4037  135.9170  159.4546 C   0  0  0  0  0  0  0  0  0  0  0  0
  128.7828  135.8298  159.5858 C   0  0  0  0  0  0  0  0  0  0  0  0
  129.5759  135.5482  158.4662 N   0  0  0  0  0  0  0  0  0  0  0  0
  129.8712  134.2398  158.1413 C   0  0  0  0  0  0  0  0  0  0  0  0
  129.4418  133.1436  158.8324 N   0  0  0  0  0  0  0  0  0  0  0  0
  128.8847  133.1458  159.6264 H   0  0  0  0  0  0  0  0  0  0  0  0
  129.9512  132.0266  158.1873 C   0  0  0  0  0  0  0  0  0  0  0  0
  129.8607  130.6557  158.4140 C   0  0  0  0  0  0  0  0  0  0  0  0
  129.1233  130.1705  159.4988 N   0  0  0  0  0  0  0  0  0  0  0  0
  130.5039  129.7740  157.5600 C   0  0  0  0  0  0  0  0  0  0  0  0
  131.2354  130.2502  156.4826 C   0  0  0  0  0  0  0  0  0  0  0  0
  131.3335  131.6028  156.2463 C   0  0  0  0  0  0  0  0  0  0  0  0
  130.6913  132.5082  157.0978 C   0  0  0  0  0  0  0  0  0  0  0  0
  130.6009  133.8638  157.1203 N   0  0  0  0  0  0  0  0  0  0  0  0
  131.0154  134.4622  156.4792 H   0  0  0  0  0  0  0  0  0  0  0  0
  129.3768  136.0214  160.8265 C   0  0  0  0  0  0  0  0  0  0  0  0
  130.8741  135.9267  160.9687 C   0  0  0  0  0  0  0  0  0  0  0  0
  132.9163  139.6325  163.4968 C   0  0  0  0  0  0  0  0  0  0  0  0
  133.3199  140.3656  164.7775 C   0  0  0  0  0  0  0  0  0  0  0  0
  133.7291  138.3580  163.2605 C   0  0  0  0  0  0  0  0  0  0  0  0
  135.4083  141.0830  162.6104 H   0  0  0  0  0  0  0  0  0  0  0  0
  135.8076  141.0818  160.8756 H   0  0  0  0  0  0  0  0  0  0  0  0
  134.6863  142.2996  161.5300 H   0  0  0  0  0  0  0  0  0  0  0  0
  131.7856  138.8840  161.2462 H   0  0  0  0  0  0  0  0  0  0  0  0
  130.7772  140.3806  161.4559 H   0  0  0  0  0  0  0  0  0  0  0  0
  130.8072  140.1673  163.8985 H   0  0  0  0  0  0  0  0  0  0  0  0
  131.2250  137.7524  164.5353 H   0  0  0  0  0  0  0  0  0  0  0  0
  129.2158  138.4876  162.5253 H   0  0  0  0  0  0  0  0  0  0  0  0
  129.0132  139.4754  164.7906 H   0  0  0  0  0  0  0  0  0  0  0  0
  127.6958  138.3201  164.4773 H   0  0  0  0  0  0  0  0  0  0  0  0
  128.5968  136.1432  163.9250 H   0  0  0  0  0  0  0  0  0  0  0  0
  126.8210  136.8781  163.7681 H   0  0  0  0  0  0  0  0  0  0  0  0
  125.4398  136.6279  162.8448 H   0  0  0  0  0  0  0  0  0  0  0  0
  125.5451  136.2621  160.4531 H   0  0  0  0  0  0  0  0  0  0  0  0
  126.9435  135.7671  158.4891 H   0  0  0  0  0  0  0  0  0  0  0  0
  129.9176  136.2728  157.9192 H   0  0  0  0  0  0  0  0  0  0  0  0
  128.6735  130.7895  160.0952 H   0  0  0  0  0  0  0  0  0  0  0  0
  129.0616  129.2152  159.6550 H   0  0  0  0  0  0  0  0  0  0  0  0
  130.4348  128.7104  157.7343 H   0  0  0  0  0  0  0  0  0  0  0  0
  131.7327  129.5541  155.8235 H   0  0  0  0  0  0  0  0  0  0  0  0
  131.9054  131.9646  155.4046 H   0  0  0  0  0  0  0  0  0  0  0  0
  131.1530  134.8982  161.1977 H   0  0  0  0  0  0  0  0  0  0  0  0
  131.3477  136.2325  160.0356 H   0  0  0  0  0  0  0  0  0  0  0  0
  131.2045  136.5811  161.7752 H   0  0  0  0  0  0  0  0  0  0  0  0
  132.9856  139.7947  165.6438 H   0  0  0  0  0  0  0  0  0  0  0  0
  134.4044  140.4718  164.8089 H   0  0  0  0  0  0  0  0  0  0  0  0
  132.8576  141.3526  164.7923 H   0  0  0  0  0  0  0  0  0  0  0  0
  133.5428  137.9900  162.2515 H   0  0  0  0  0  0  0  0  0  0  0  0
  134.7905  138.5769  163.3771 H   0  0  0  0  0  0  0  0  0  0  0  0
  133.4331  137.5986  163.9844 H   0  0  0  0  0  0  0  0  0  0  0  0
  1  2  1  0
  1 37  1  0
  1 38  1  0
  1 39  1  0
  2  3  1  0
  3  4  1  1
  3 34  1  0
  3  5  1  0
  5  6  1  0
  5 40  1  0
  5 41  1  0
  6  7  1  0
  6 34  1  0
  6 42  1  1
  7  8  1  0
  7 43  1  0
  8  9  1  0
  8 12  1  0
  8 44  1  6
  9 10  1  0
  9 45  1  0
  9 46  1  0
 10 11  3  0
 12 13  1  0
 12 47  1  0
 13 32  1  0
 13 14  2  0
 14 15  1  0
 14 16  1  0
 15 48  1  0
 15 49  1  0
 16 17  2  0
 16 50  1  0
 17 18  1  0
 17 51  1  0
 18 19  1  0
 18 32  2  0
 19 52  1  0
 20 19  1  0
 20 30  2  0
 20 21  1  0
 21 22  1  0
 21 23  1  0
 23 29  2  0
 23 24  1  0
 24 25  1  0
 24 26  2  0
 25 53  1  0
 25 54  1  0
 26 27  1  0
 26 55  1  0
 27 28  2  0
 27 56  1  0
 28 29  1  0
 28 57  1  0
 29 30  1  0
 30 31  1  0
 32 33  1  0
 33 58  1  0
 33 59  1  0
 33 60  1  0
 34 35  1  0
 34 36  1  0
 35 61  1  0
 35 62  1  0
 35 63  1  0
 36 64  1  0
 36 65  1  0
 36 66  1  0
M  CHG  1  30   1
M  END
>  <DOCK_score>  (1) 
-51.086704

>  <SMILES>  (1) 
CO[C@H]1CC(NC(CC#N)Nc2c(N)ccc(Nc3[nH]c4c(N)cccc4[nH+]3)c2C)C1(C)C

$$$$
