Fc1ccc(CCCSc2ccc(C[NH+]3CCN([C@@H](Cc4ccccc4)C(F)F)CC3)cc2)cc1
     RDKit          3D

 69 72  0  0  1  0  0  0  0  0999 V2000
  133.9790  137.9697  169.1185 F   0  0  0  0  0  0  0  0  0  0  0  0
  134.2656  138.6349  167.9779 C   0  0  0  0  0  0  0  0  0  0  0  0
  133.2439  139.0293  167.1306 C   0  0  0  0  0  0  0  0  0  0  0  0
  133.5382  139.7093  165.9641 C   0  0  0  0  0  0  0  0  0  0  0  0
  134.8520  139.9953  165.6427 C   0  0  0  0  0  0  0  0  0  0  0  0
  135.1716  140.7363  164.3701 C   0  0  0  0  0  0  0  0  0  0  0  0
  135.3737  139.7332  163.2327 C   0  0  0  0  0  0  0  0  0  0  0  0
  135.6983  140.4855  161.9406 C   0  0  0  0  0  0  0  0  0  0  0  0
  135.9379  139.2961  160.5921 S   0  0  0  0  0  0  0  0  0  0  0  0
  134.3873  138.4624  160.5197 C   0  0  0  0  0  0  0  0  0  0  0  0
  134.1772  137.3151  161.2749 C   0  0  0  0  0  0  0  0  0  0  0  0
  132.9592  136.6670  161.2188 C   0  0  0  0  0  0  0  0  0  0  0  0
  131.9527  137.1522  160.4037 C   0  0  0  0  0  0  0  0  0  0  0  0
  130.6268  136.4386  160.3409 C   0  0  0  0  0  0  0  0  0  0  0  0
  130.6653  135.4268  159.2766 N   0  0  0  0  0  0  0  0  0  0  0  0
  131.1571  135.7979  158.4775 H   0  0  0  0  0  0  0  0  0  0  0  0
  129.2937  135.0745  158.8866 C   0  0  0  0  0  0  0  0  0  0  0  0
  129.3334  134.0345  157.7646 C   0  0  0  0  0  0  0  0  0  0  0  0
  130.0497  132.8398  158.2335 N   0  0  0  0  0  0  0  0  0  0  0  0
  130.0601  131.7938  157.2021 C   0  0  1  0  0  0  0  0  0  0  0  0
  129.0894  131.7617  156.7075 H   0  0  0  0  0  0  0  0  0  0  0  0
  131.1475  132.1044  156.1716 C   0  0  0  0  0  0  0  0  0  0  0  0
  130.8584  131.3569  154.8954 C   0  0  0  0  0  0  0  0  0  0  0  0
  131.3730  130.0880  154.7058 C   0  0  0  0  0  0  0  0  0  0  0  0
  131.1038  129.4005  153.5373 C   0  0  0  0  0  0  0  0  0  0  0  0
  130.3286  129.9861  152.5537 C   0  0  0  0  0  0  0  0  0  0  0  0
  129.8184  131.2570  152.7411 C   0  0  0  0  0  0  0  0  0  0  0  0
  130.0833  131.9425  153.9120 C   0  0  0  0  0  0  0  0  0  0  0  0
  130.3460  130.4389  157.8527 C   0  0  0  0  0  0  0  0  0  0  0  0
  131.5920  130.4802  158.4877 F   0  0  0  0  0  0  0  0  0  0  0  0
  129.3516  130.1549  158.7950 F   0  0  0  0  0  0  0  0  0  0  0  0
  131.4168  133.1813  158.6512 C   0  0  0  0  0  0  0  0  0  0  0  0
  131.3599  134.2285  159.7655 C   0  0  0  0  0  0  0  0  0  0  0  0
  132.1602  138.2904  159.6460 C   0  0  0  0  0  0  0  0  0  0  0  0
  133.3739  138.9465  159.7008 C   0  0  0  0  0  0  0  0  0  0  0  0
  135.8732  139.5971  166.4850 C   0  0  0  0  0  0  0  0  0  0  0  0
  135.5809  138.9223  167.6552 C   0  0  0  0  0  0  0  0  0  0  0  0
  132.2175  138.8053  167.3811 H   0  0  0  0  0  0  0  0  0  0  0  0
  132.7415  140.0170  165.3030 H   0  0  0  0  0  0  0  0  0  0  0  0
  136.0830  141.3182  164.5076 H   0  0  0  0  0  0  0  0  0  0  0  0
  134.3475  141.4053  164.1222 H   0  0  0  0  0  0  0  0  0  0  0  0
  134.4624  139.1513  163.0952 H   0  0  0  0  0  0  0  0  0  0  0  0
  136.1979  139.0643  163.4804 H   0  0  0  0  0  0  0  0  0  0  0  0
  136.6096  141.0674  162.0781 H   0  0  0  0  0  0  0  0  0  0  0  0
  134.8741  141.1544  161.6928 H   0  0  0  0  0  0  0  0  0  0  0  0
  134.9642  136.9333  161.9085 H   0  0  0  0  0  0  0  0  0  0  0  0
  132.7939  135.7776  161.8089 H   0  0  0  0  0  0  0  0  0  0  0  0
  130.4298  135.9532  161.2967 H   0  0  0  0  0  0  0  0  0  0  0  0
  129.8364  137.1587  160.1293 H   0  0  0  0  0  0  0  0  0  0  0  0
  128.7662  134.6616  159.7465 H   0  0  0  0  0  0  0  0  0  0  0  0
  128.7749  135.9668  158.5363 H   0  0  0  0  0  0  0  0  0  0  0  0
  129.8491  134.4519  156.8998 H   0  0  0  0  0  0  0  0  0  0  0  0
  128.3156  133.7621  157.4852 H   0  0  0  0  0  0  0  0  0  0  0  0
  131.1618  133.1756  155.9701 H   0  0  0  0  0  0  0  0  0  0  0  0
  132.1170  131.7953  156.5621 H   0  0  0  0  0  0  0  0  0  0  0  0
  131.9823  129.6323  155.4723 H   0  0  0  0  0  0  0  0  0  0  0  0
  131.5027  128.4076  153.3908 H   0  0  0  0  0  0  0  0  0  0  0  0
  130.1219  129.4506  151.6388 H   0  0  0  0  0  0  0  0  0  0  0  0
  129.2131  131.7147  151.9726 H   0  0  0  0  0  0  0  0  0  0  0  0
  129.6850  132.9357  154.0582 H   0  0  0  0  0  0  0  0  0  0  0  0
  130.3538  129.6628  157.0875 H   0  0  0  0  0  0  0  0  0  0  0  0
  131.9669  133.5845  157.8009 H   0  0  0  0  0  0  0  0  0  0  0  0
  131.9191  132.2864  159.0184 H   0  0  0  0  0  0  0  0  0  0  0  0
  132.3733  134.4937  160.0670 H   0  0  0  0  0  0  0  0  0  0  0  0
  130.8216  133.8201  160.6208 H   0  0  0  0  0  0  0  0  0  0  0  0
  131.3721  138.6663  159.0104 H   0  0  0  0  0  0  0  0  0  0  0  0
  133.5354  139.8349  159.1082 H   0  0  0  0  0  0  0  0  0  0  0  0
  136.8995  139.8168  166.2307 H   0  0  0  0  0  0  0  0  0  0  0  0
  136.3786  138.6150  168.3153 H   0  0  0  0  0  0  0  0  0  0  0  0
  1  2  1  0
  2 37  2  0
  2  3  1  0
  3  4  2  0
  3 38  1  0
  4  5  1  0
  4 39  1  0
  5  6  1  0
  5 36  2  0
  6  7  1  0
  6 40  1  0
  6 41  1  0
  7  8  1  0
  7 42  1  0
  7 43  1  0
  8  9  1  0
  8 44  1  0
  8 45  1  0
  9 10  1  0
 10 35  1  0
 10 11  2  0
 11 12  1  0
 11 46  1  0
 12 13  2  0
 12 47  1  0
 13 14  1  0
 13 34  1  0
 14 15  1  0
 14 48  1  0
 14 49  1  0
 15 16  1  0
 15 33  1  0
 15 17  1  0
 17 18  1  0
 17 50  1  0
 17 51  1  0
 18 19  1  0
 18 52  1  0
 18 53  1  0
 19 20  1  0
 19 32  1  0
 20 21  1  6
 20 22  1  0
 20 29  1  0
 22 23  1  0
 22 54  1  0
 22 55  1  0
 23 28  1  0
 23 24  2  0
 24 25  1  0
 24 56  1  0
 25 26  2  0
 25 57  1  0
 26 27  1  0
 26 58  1  0
 27 28  2  0
 27 59  1  0
 28 60  1  0
 29 30  1  0
 29 31  1  0
 29 61  1  0
 32 33  1  0
 32 62  1  0
 32 63  1  0
 33 64  1  0
 33 65  1  0
 34 35  2  0
 34 66  1  0
 35 67  1  0
 36 37  1  0
 36 68  1  0
 37 69  1  0
M  CHG  1  15   1
M  END
>  <DOCK_score>  (1) 
-58.309742

>  <SMILES>  (1) 
Fc1ccc(CCCSc2ccc(C[NH+]3CCN([C@@H](Cc4ccccc4)C(F)F)CC3)cc2)cc1

$$$$
