Cc1ccc(CC[C@@H](CC2=CCCC2)Nc2[nH]cc(-c3ccc(N)cc3)[nH+]2)cc1
     RDKit          3D

 60 63  0  0  1  0  0  0  0  0999 V2000
  135.4580  138.4212  163.9536 C   0  0  0  0  0  0  0  0  0  0  0  0
  134.6165  137.3241  163.3540 C   0  0  0  0  0  0  0  0  0  0  0  0
  135.2068  136.1389  162.9568 C   0  0  0  0  0  0  0  0  0  0  0  0
  134.4350  135.1327  162.4067 C   0  0  0  0  0  0  0  0  0  0  0  0
  133.0727  135.3112  162.2549 C   0  0  0  0  0  0  0  0  0  0  0  0
  132.2312  134.2141  161.6553 C   0  0  0  0  0  0  0  0  0  0  0  0
  132.1709  134.3898  160.1366 C   0  0  0  0  0  0  0  0  0  0  0  0
  131.3165  133.2760  159.5280 C   0  0  1  0  0  0  0  0  0  0  0  0
  131.7589  132.3084  159.7645 H   0  0  0  0  0  0  0  0  0  0  0  0
  129.9016  133.3448  160.1060 C   0  0  0  0  0  0  0  0  0  0  0  0
  129.2899  134.6828  159.7790 C   0  0  0  0  0  0  0  0  0  0  0  0
  128.8809  135.5451  160.6695 C   0  0  0  0  0  0  0  0  0  0  0  0
  128.3200  136.7836  160.0101 C   0  0  0  0  0  0  0  0  0  0  0  0
  128.0662  136.3669  158.5428 C   0  0  0  0  0  0  0  0  0  0  0  0
  129.0756  135.2050  158.3774 C   0  0  0  0  0  0  0  0  0  0  0  0
  131.2586  133.4442  158.0738 N   0  0  0  0  0  0  0  0  0  0  0  0
  131.1194  132.3374  157.2540 C   0  0  0  0  0  0  0  0  0  0  0  0
  131.0268  131.0465  157.6742 N   0  0  0  0  0  0  0  0  0  0  0  0
  131.0460  130.7388  158.5938 H   0  0  0  0  0  0  0  0  0  0  0  0
  130.9014  130.2589  156.5543 C   0  0  0  0  0  0  0  0  0  0  0  0
  130.9152  131.0918  155.4844 C   0  0  0  0  0  0  0  0  0  0  0  0
  130.8009  130.6874  154.0616 C   0  0  0  0  0  0  0  0  0  0  0  0
  130.2136  131.5487  153.1361 C   0  0  0  0  0  0  0  0  0  0  0  0
  130.1137  131.1730  151.8131 C   0  0  0  0  0  0  0  0  0  0  0  0
  130.5871  129.9318  151.4044 C   0  0  0  0  0  0  0  0  0  0  0  0
  130.4790  129.5508  150.0648 N   0  0  0  0  0  0  0  0  0  0  0  0
  131.1682  129.0694  152.3264 C   0  0  0  0  0  0  0  0  0  0  0  0
  131.2754  129.4432  153.6493 C   0  0  0  0  0  0  0  0  0  0  0  0
  131.0558  132.3601  155.9449 N   0  0  0  0  0  0  0  0  0  0  0  0
  131.0985  133.1571  155.3935 H   0  0  0  0  0  0  0  0  0  0  0  0
  132.4831  136.4982  162.6477 C   0  0  0  0  0  0  0  0  0  0  0  0
  133.2542  137.5028  163.2017 C   0  0  0  0  0  0  0  0  0  0  0  0
  135.8174  139.0777  163.1612 H   0  0  0  0  0  0  0  0  0  0  0  0
  134.8568  138.9966  164.6575 H   0  0  0  0  0  0  0  0  0  0  0  0
  136.3084  137.9827  164.4757 H   0  0  0  0  0  0  0  0  0  0  0  0
  136.2711  135.9993  163.0758 H   0  0  0  0  0  0  0  0  0  0  0  0
  134.8963  134.2069  162.0960 H   0  0  0  0  0  0  0  0  0  0  0  0
  131.2231  134.2632  162.0671 H   0  0  0  0  0  0  0  0  0  0  0  0
  132.6735  133.2464  161.8920 H   0  0  0  0  0  0  0  0  0  0  0  0
  133.1789  134.3407  159.7249 H   0  0  0  0  0  0  0  0  0  0  0  0
  131.7285  135.3575  159.9001 H   0  0  0  0  0  0  0  0  0  0  0  0
  129.2928  132.5514  159.6724 H   0  0  0  0  0  0  0  0  0  0  0  0
  129.9446  133.2197  161.1879 H   0  0  0  0  0  0  0  0  0  0  0  0
  128.9358  135.3931  161.7374 H   0  0  0  0  0  0  0  0  0  0  0  0
  127.3860  137.0784  160.4882 H   0  0  0  0  0  0  0  0  0  0  0  0
  129.0435  137.5977  160.0539 H   0  0  0  0  0  0  0  0  0  0  0  0
  127.0412  136.0223  158.4057 H   0  0  0  0  0  0  0  0  0  0  0  0
  128.2969  137.1835  157.8586 H   0  0  0  0  0  0  0  0  0  0  0  0
  130.0141  135.5704  157.9606 H   0  0  0  0  0  0  0  0  0  0  0  0
  128.6549  134.4256  157.7421 H   0  0  0  0  0  0  0  0  0  0  0  0
  131.3179  134.3312  157.6854 H   0  0  0  0  0  0  0  0  0  0  0  0
  130.8051  129.1836  156.5313 H   0  0  0  0  0  0  0  0  0  0  0  0
  129.8410  132.5111  153.4543 H   0  0  0  0  0  0  0  0  0  0  0  0
  129.6628  131.8418  151.0949 H   0  0  0  0  0  0  0  0  0  0  0  0
  130.8094  128.6849  149.7787 H   0  0  0  0  0  0  0  0  0  0  0  0
  130.0736  130.1523  149.4206 H   0  0  0  0  0  0  0  0  0  0  0  0
  131.5356  128.1055  152.0066 H   0  0  0  0  0  0  0  0  0  0  0  0
  131.7270  128.7727  154.3655 H   0  0  0  0  0  0  0  0  0  0  0  0
  131.4193  136.6393  162.5251 H   0  0  0  0  0  0  0  0  0  0  0  0
  132.7929  138.4286  163.5123 H   0  0  0  0  0  0  0  0  0  0  0  0
  1  2  1  0
  1 33  1  0
  1 34  1  0
  1 35  1  0
  2 32  2  0
  2  3  1  0
  3  4  2  0
  3 36  1  0
  4  5  1  0
  4 37  1  0
  5  6  1  0
  5 31  2  0
  6  7  1  0
  6 38  1  0
  6 39  1  0
  7  8  1  0
  7 40  1  0
  7 41  1  0
  8  9  1  6
  8 10  1  0
  8 16  1  0
 10 11  1  0
 10 42  1  0
 10 43  1  0
 11 15  1  0
 11 12  2  0
 12 13  1  0
 12 44  1  0
 13 14  1  0
 13 45  1  0
 13 46  1  0
 14 15  1  0
 14 47  1  0
 14 48  1  0
 15 49  1  0
 15 50  1  0
 16 51  1  0
 17 16  1  0
 17 29  2  0
 17 18  1  0
 18 19  1  0
 18 20  1  0
 20 21  2  0
 20 52  1  0
 21 22  1  0
 21 29  1  0
 22 28  1  0
 22 23  2  0
 23 24  1  0
 23 53  1  0
 24 25  2  0
 24 54  1  0
 25 26  1  0
 25 27  1  0
 26 55  1  0
 26 56  1  0
 27 28  2  0
 27 57  1  0
 28 58  1  0
 29 30  1  0
 31 32  1  0
 31 59  1  0
 32 60  1  0
M  CHG  1  29   1
M  END
>  <DOCK_score>  (1) 
-55.976349

>  <SMILES>  (1) 
Cc1ccc(CC[C@@H](CC2=CCCC2)Nc2[nH]cc(-c3ccc(N)cc3)[nH+]2)cc1

$$$$
