CCCNc1c(N)cccc1Nc1[nH]cc(-c2ccc(N)cc2)[nH+]1
     RDKit          3D

 47 49  0  0  1  0  0  0  0  0999 V2000
  132.6810  139.5642  160.9078 C   0  0  0  0  0  0  0  0  0  0  0  0
  132.2905  139.1679  159.4826 C   0  0  0  0  0  0  0  0  0  0  0  0
  130.8655  138.6107  159.4805 C   0  0  0  0  0  0  0  0  0  0  0  0
  130.7999  137.4303  160.3524 N   0  0  0  0  0  0  0  0  0  0  0  0
  129.5038  136.8923  160.3741 C   0  0  0  0  0  0  0  0  0  0  0  0
  128.5795  137.3344  161.3171 C   0  0  0  0  0  0  0  0  0  0  0  0
  128.9413  138.3168  162.2470 N   0  0  0  0  0  0  0  0  0  0  0  0
  127.3004  136.7959  161.3369 C   0  0  0  0  0  0  0  0  0  0  0  0
  126.9421  135.8249  160.4198 C   0  0  0  0  0  0  0  0  0  0  0  0
  127.8541  135.3858  159.4790 C   0  0  0  0  0  0  0  0  0  0  0  0
  129.1362  135.9185  159.4497 C   0  0  0  0  0  0  0  0  0  0  0  0
  130.0598  135.4724  158.4956 N   0  0  0  0  0  0  0  0  0  0  0  0
  129.9868  134.1758  158.0143 C   0  0  0  0  0  0  0  0  0  0  0  0
  129.5223  133.0988  158.7048 N   0  0  0  0  0  0  0  0  0  0  0  0
  129.1866  133.1008  159.6149 H   0  0  0  0  0  0  0  0  0  0  0  0
  129.6174  132.0077  157.8745 C   0  0  0  0  0  0  0  0  0  0  0  0
  130.1313  132.4506  156.7002 C   0  0  0  0  0  0  0  0  0  0  0  0
  130.4057  131.6230  155.4999 C   0  0  0  0  0  0  0  0  0  0  0  0
  129.7663  131.9080  154.2944 C   0  0  0  0  0  0  0  0  0  0  0  0
  130.0270  131.1407  153.1788 C   0  0  0  0  0  0  0  0  0  0  0  0
  130.9180  130.0771  153.2582 C   0  0  0  0  0  0  0  0  0  0  0  0
  131.1765  129.2978  152.1280 N   0  0  0  0  0  0  0  0  0  0  0  0
  131.5527  129.7879  154.4604 C   0  0  0  0  0  0  0  0  0  0  0  0
  131.2991  130.5557  155.5774 C   0  0  0  0  0  0  0  0  0  0  0  0
  130.3529  133.7834  156.8182 N   0  0  0  0  0  0  0  0  0  0  0  0
  130.7199  134.3559  156.1263 H   0  0  0  0  0  0  0  0  0  0  0  0
  133.6962  139.9611  160.9093 H   0  0  0  0  0  0  0  0  0  0  0  0
  131.9925  140.3255  161.2747 H   0  0  0  0  0  0  0  0  0  0  0  0
  132.6323  138.6883  161.5548 H   0  0  0  0  0  0  0  0  0  0  0  0
  132.9787  138.4065  159.1156 H   0  0  0  0  0  0  0  0  0  0  0  0
  132.3391  140.0437  158.8357 H   0  0  0  0  0  0  0  0  0  0  0  0
  130.5872  138.3284  158.4652 H   0  0  0  0  0  0  0  0  0  0  0  0
  130.1771  139.3720  159.8474 H   0  0  0  0  0  0  0  0  0  0  0  0
  131.4753  136.7353  160.0714 H   0  0  0  0  0  0  0  0  0  0  0  0
  128.3234  138.5697  162.9508 H   0  0  0  0  0  0  0  0  0  0  0  0
  129.8098  138.7446  162.1874 H   0  0  0  0  0  0  0  0  0  0  0  0
  126.5838  137.1355  162.0701 H   0  0  0  0  0  0  0  0  0  0  0  0
  125.9458  135.4086  160.4387 H   0  0  0  0  0  0  0  0  0  0  0  0
  127.5692  134.6272  158.7651 H   0  0  0  0  0  0  0  0  0  0  0  0
  130.7506  136.0716  158.1720 H   0  0  0  0  0  0  0  0  0  0  0  0
  129.3331  130.9928  158.1103 H   0  0  0  0  0  0  0  0  0  0  0  0
  129.0702  132.7314  154.2334 H   0  0  0  0  0  0  0  0  0  0  0  0
  129.5350  131.3636  152.2436 H   0  0  0  0  0  0  0  0  0  0  0  0
  131.7985  128.5553  152.1828 H   0  0  0  0  0  0  0  0  0  0  0  0
  130.7340  129.4989  151.2887 H   0  0  0  0  0  0  0  0  0  0  0  0
  132.2447  128.9609  154.5200 H   0  0  0  0  0  0  0  0  0  0  0  0
  131.7925  130.3306  156.5114 H   0  0  0  0  0  0  0  0  0  0  0  0
  1  2  1  0
  1 27  1  0
  1 28  1  0
  1 29  1  0
  2  3  1  0
  2 30  1  0
  2 31  1  0
  3  4  1  0
  3 32  1  0
  3 33  1  0
  4  5  1  0
  4 34  1  0
  5 11  2  0
  5  6  1  0
  6  7  1  0
  6  8  2  0
  7 35  1  0
  7 36  1  0
  8  9  1  0
  8 37  1  0
  9 10  2  0
  9 38  1  0
 10 11  1  0
 10 39  1  0
 11 12  1  0
 12 40  1  0
 13 12  1  0
 13 25  2  0
 13 14  1  0
 14 15  1  0
 14 16  1  0
 16 17  2  0
 16 41  1  0
 17 18  1  0
 17 25  1  0
 18 24  1  0
 18 19  2  0
 19 20  1  0
 19 42  1  0
 20 21  2  0
 20 43  1  0
 21 22  1  0
 21 23  1  0
 22 44  1  0
 22 45  1  0
 23 24  2  0
 23 46  1  0
 24 47  1  0
 25 26  1  0
M  CHG  1  25   1
M  END
>  <DOCK_score>  (1) 
-56.059631

>  <SMILES>  (1) 
CCCNc1c(N)cccc1Nc1[nH]cc(-c2ccc(N)cc2)[nH+]1

$$$$
