Cc1ccc(C2=CCCCC2)c(Nc2[nH]cc(-c3ccc(N)cc3)[nH+]2)c1
     RDKit          3D

 51 54  0  0  1  0  0  0  0  0999 V2000
  125.5856  134.7768  160.3155 C   0  0  0  0  0  0  0  0  0  0  0  0
  126.9605  135.3941  160.3192 C   0  0  0  0  0  0  0  0  0  0  0  0
  127.3097  136.2905  161.3149 C   0  0  0  0  0  0  0  0  0  0  0  0
  128.5654  136.8620  161.3279 C   0  0  0  0  0  0  0  0  0  0  0  0
  129.4886  136.5360  160.3343 C   0  0  0  0  0  0  0  0  0  0  0  0
  130.8342  137.1449  160.3424 C   0  0  0  0  0  0  0  0  0  0  0  0
  131.0040  138.2759  159.6998 C   0  0  0  0  0  0  0  0  0  0  0  0
  132.3156  139.0007  159.6158 C   0  0  0  0  0  0  0  0  0  0  0  0
  133.2700  138.4898  160.6971 C   0  0  0  0  0  0  0  0  0  0  0  0
  133.2939  136.9574  160.6404 C   0  0  0  0  0  0  0  0  0  0  0  0
  131.9257  136.4364  161.0904 C   0  0  0  0  0  0  0  0  0  0  0  0
  129.1321  135.6278  159.3277 C   0  0  0  0  0  0  0  0  0  0  0  0
  130.0470  135.2945  158.3285 N   0  0  0  0  0  0  0  0  0  0  0  0
  130.0027  134.0418  157.7388 C   0  0  0  0  0  0  0  0  0  0  0  0
  129.5838  132.8959  158.3420 N   0  0  0  0  0  0  0  0  0  0  0  0
  129.2648  132.8100  159.2541 H   0  0  0  0  0  0  0  0  0  0  0  0
  129.6963  131.8829  157.4201 C   0  0  0  0  0  0  0  0  0  0  0  0
  130.1747  132.4401  156.2799 C   0  0  0  0  0  0  0  0  0  0  0  0
  130.4513  131.7266  155.0090 C   0  0  0  0  0  0  0  0  0  0  0  0
  130.3257  132.3944  153.7919 C   0  0  0  0  0  0  0  0  0  0  0  0
  130.5895  131.7309  152.6121 C   0  0  0  0  0  0  0  0  0  0  0  0
  130.9681  130.3939  152.6352 C   0  0  0  0  0  0  0  0  0  0  0  0
  131.2286  129.7220  151.4385 N   0  0  0  0  0  0  0  0  0  0  0  0
  131.0884  129.7245  153.8473 C   0  0  0  0  0  0  0  0  0  0  0  0
  130.8317  130.3857  155.0298 C   0  0  0  0  0  0  0  0  0  0  0  0
  130.3582  133.7643  156.5078 N   0  0  0  0  0  0  0  0  0  0  0  0
  130.6949  134.4047  155.8618 H   0  0  0  0  0  0  0  0  0  0  0  0
  127.8633  135.0661  159.3265 C   0  0  0  0  0  0  0  0  0  0  0  0
  124.9072  135.4042  159.7375 H   0  0  0  0  0  0  0  0  0  0  0  0
  125.6341  133.7846  159.8667 H   0  0  0  0  0  0  0  0  0  0  0  0
  125.2214  134.6950  161.3395 H   0  0  0  0  0  0  0  0  0  0  0  0
  126.5960  136.5437  162.0848 H   0  0  0  0  0  0  0  0  0  0  0  0
  128.8333  137.5607  162.1065 H   0  0  0  0  0  0  0  0  0  0  0  0
  130.1500  138.7110  159.2019 H   0  0  0  0  0  0  0  0  0  0  0  0
  132.7589  138.8329  158.6342 H   0  0  0  0  0  0  0  0  0  0  0  0
  132.1482  140.0685  159.7568 H   0  0  0  0  0  0  0  0  0  0  0  0
  134.2718  138.8788  160.5150 H   0  0  0  0  0  0  0  0  0  0  0  0
  132.9205  138.8145  161.6773 H   0  0  0  0  0  0  0  0  0  0  0  0
  133.4964  136.6318  159.6201 H   0  0  0  0  0  0  0  0  0  0  0  0
  134.0692  136.5783  161.3063 H   0  0  0  0  0  0  0  0  0  0  0  0
  131.8026  136.6100  162.1594 H   0  0  0  0  0  0  0  0  0  0  0  0
  131.8649  135.3665  160.8907 H   0  0  0  0  0  0  0  0  0  0  0  0
  130.7139  135.9399  158.0468 H   0  0  0  0  0  0  0  0  0  0  0  0
  129.4472  130.8432  157.5729 H   0  0  0  0  0  0  0  0  0  0  0  0
  130.0265  133.4320  153.7732 H   0  0  0  0  0  0  0  0  0  0  0  0
  130.4969  132.2493  151.6692 H   0  0  0  0  0  0  0  0  0  0  0  0
  131.4934  128.7890  151.4539 H   0  0  0  0  0  0  0  0  0  0  0  0
  131.1449  130.1885  150.5923 H   0  0  0  0  0  0  0  0  0  0  0  0
  131.3828  128.6855  153.8629 H   0  0  0  0  0  0  0  0  0  0  0  0
  130.9258  129.8651  155.9714 H   0  0  0  0  0  0  0  0  0  0  0  0
  127.5825  134.3693  158.5507 H   0  0  0  0  0  0  0  0  0  0  0  0
  1  2  1  0
  1 29  1  0
  1 30  1  0
  1 31  1  0
  2 28  2  0
  2  3  1  0
  3  4  2  0
  3 32  1  0
  4  5  1  0
  4 33  1  0
  5  6  1  0
  5 12  2  0
  6 11  1  0
  6  7  2  0
  7  8  1  0
  7 34  1  0
  8  9  1  0
  8 35  1  0
  8 36  1  0
  9 10  1  0
  9 37  1  0
  9 38  1  0
 10 11  1  0
 10 39  1  0
 10 40  1  0
 11 41  1  0
 11 42  1  0
 12 13  1  0
 12 28  1  0
 13 43  1  0
 14 13  1  0
 14 26  2  0
 14 15  1  0
 15 16  1  0
 15 17  1  0
 17 18  2  0
 17 44  1  0
 18 19  1  0
 18 26  1  0
 19 25  1  0
 19 20  2  0
 20 21  1  0
 20 45  1  0
 21 22  2  0
 21 46  1  0
 22 23  1  0
 22 24  1  0
 23 47  1  0
 23 48  1  0
 24 25  2  0
 24 49  1  0
 25 50  1  0
 26 27  1  0
 28 51  1  0
M  CHG  1  26   1
M  END
>  <DOCK_score>  (1) 
-59.112167

>  <SMILES>  (1) 
Cc1ccc(C2=CCCCC2)c(Nc2[nH]cc(-c3ccc(N)cc3)[nH+]2)c1

$$$$
