Cc1ccc([C@H](C)Oc2ccccc2CC([NH3+])C(=O)Nc2cccc(O)c2)nc1
     RDKit          3D

 55 57  0  0  1  0  0  0  0  0999 V2000
  128.1793  140.4230  163.4484 C   0  0  0  0  0  0  0  0  0  0  0  0
  129.2451  139.5221  162.8797 C   0  0  0  0  0  0  0  0  0  0  0  0
  130.4940  139.4478  163.4776 C   0  0  0  0  0  0  0  0  0  0  0  0
  131.4414  138.6009  162.9235 C   0  0  0  0  0  0  0  0  0  0  0  0
  131.1155  137.8721  161.7951 C   0  0  0  0  0  0  0  0  0  0  0  0
  132.1393  136.9525  161.1810 C   0  0  2  0  0  0  0  0  0  0  0  0
  132.8039  136.5772  161.9593 H   0  0  0  0  0  0  0  0  0  0  0  0
  132.9560  137.7209  160.1401 C   0  0  0  0  0  0  0  0  0  0  0  0
  131.4764  135.8547  160.5506 O   0  0  0  0  0  0  0  0  0  0  0  0
  131.2465  134.7530  161.3123 C   0  0  0  0  0  0  0  0  0  0  0  0
  131.0496  134.8823  162.6797 C   0  0  0  0  0  0  0  0  0  0  0  0
  130.8217  133.7604  163.4526 C   0  0  0  0  0  0  0  0  0  0  0  0
  130.7850  132.5096  162.8639 C   0  0  0  0  0  0  0  0  0  0  0  0
  130.9757  132.3786  161.5010 C   0  0  0  0  0  0  0  0  0  0  0  0
  131.2040  133.4977  160.7236 C   0  0  0  0  0  0  0  0  0  0  0  0
  131.4128  133.3542  159.2380 C   0  0  0  0  0  0  0  0  0  0  0  0
  130.3379  134.1483  158.4930 C   0  0  1  0  0  0  0  0  0  0  0  0
  130.5412  134.0084  157.0448 N   0  0  0  0  0  0  0  0  0  0  0  0
  131.4530  134.3626  156.7975 H   0  0  0  0  0  0  0  0  0  0  0  0
  130.4779  133.0345  156.7888 H   0  0  0  0  0  0  0  0  0  0  0  0
  129.8324  134.5320  156.5535 H   0  0  0  0  0  0  0  0  0  0  0  0
  128.9760  133.6191  158.8623 C   0  0  0  0  0  0  0  0  0  0  0  0
  128.4767  132.7242  158.2138 O   0  0  0  0  0  0  0  0  0  0  0  0
  128.3152  134.1368  159.9169 N   0  0  0  0  0  0  0  0  0  0  0  0
  127.0533  133.6415  160.2635 C   0  0  0  0  0  0  0  0  0  0  0  0
  126.7297  132.3165  159.9995 C   0  0  0  0  0  0  0  0  0  0  0  0
  125.4860  131.8261  160.3467 C   0  0  0  0  0  0  0  0  0  0  0  0
  124.5567  132.6544  160.9471 C   0  0  0  0  0  0  0  0  0  0  0  0
  124.8724  133.9803  161.2080 C   0  0  0  0  0  0  0  0  0  0  0  0
  123.9575  134.7937  161.7980 O   0  0  0  0  0  0  0  0  0  0  0  0
  126.1216  134.4746  160.8660 C   0  0  0  0  0  0  0  0  0  0  0  0
  129.9174  137.9679  161.2531 N   0  0  0  0  0  0  0  0  0  0  0  0
  128.9900  138.7594  161.7560 C   0  0  0  0  0  0  0  0  0  0  0  0
  127.5912  139.8719  164.1823 H   0  0  0  0  0  0  0  0  0  0  0  0
  128.6479  141.2817  163.9292 H   0  0  0  0  0  0  0  0  0  0  0  0
  127.5278  140.7671  162.6451 H   0  0  0  0  0  0  0  0  0  0  0  0
  130.7219  140.0325  164.3566 H   0  0  0  0  0  0  0  0  0  0  0  0
  132.4229  138.5144  163.3657 H   0  0  0  0  0  0  0  0  0  0  0  0
  133.4617  138.5583  160.6209 H   0  0  0  0  0  0  0  0  0  0  0  0
  133.6966  137.0559  159.6960 H   0  0  0  0  0  0  0  0  0  0  0  0
  132.2916  138.0962  159.3618 H   0  0  0  0  0  0  0  0  0  0  0  0
  131.0785  135.8589  163.1400 H   0  0  0  0  0  0  0  0  0  0  0  0
  130.6725  133.8601  164.5176 H   0  0  0  0  0  0  0  0  0  0  0  0
  130.6068  131.6336  163.4700 H   0  0  0  0  0  0  0  0  0  0  0  0
  130.9465  131.4008  161.0437 H   0  0  0  0  0  0  0  0  0  0  0  0
  131.3445  132.3021  158.9614 H   0  0  0  0  0  0  0  0  0  0  0  0
  132.3977  133.7370  158.9708 H   0  0  0  0  0  0  0  0  0  0  0  0
  130.4062  135.2004  158.7695 H   0  0  0  0  0  0  0  0  0  0  0  0
  128.7146  134.8526  160.4356 H   0  0  0  0  0  0  0  0  0  0  0  0
  127.4526  131.6683  159.5264 H   0  0  0  0  0  0  0  0  0  0  0  0
  125.2378  130.7946  160.1449 H   0  0  0  0  0  0  0  0  0  0  0  0
  123.5836  132.2692  161.2139 H   0  0  0  0  0  0  0  0  0  0  0  0
  124.2686  135.6984  161.9389 H   0  0  0  0  0  0  0  0  0  0  0  0
  126.3693  135.5061  161.0686 H   0  0  0  0  0  0  0  0  0  0  0  0
  128.0198  138.8117  161.2845 H   0  0  0  0  0  0  0  0  0  0  0  0
  1  2  1  0
  1 34  1  0
  1 35  1  0
  1 36  1  0
  2 33  2  0
  2  3  1  0
  3  4  2  0
  3 37  1  0
  4  5  1  0
  4 38  1  0
  5  6  1  0
  5 32  2  0
  6  7  1  1
  6  8  1  0
  6  9  1  0
  8 39  1  0
  8 40  1  0
  8 41  1  0
  9 10  1  0
 10 15  1  0
 10 11  2  0
 11 12  1  0
 11 42  1  0
 12 13  2  0
 12 43  1  0
 13 14  1  0
 13 44  1  0
 14 15  2  0
 14 45  1  0
 15 16  1  0
 16 17  1  0
 16 46  1  0
 16 47  1  0
 17 18  1  0
 17 22  1  0
 17 48  1  1
 18 19  1  0
 18 20  1  0
 18 21  1  0
 22 23  2  0
 22 24  1  0
 24 25  1  0
 24 49  1  0
 25 31  1  0
 25 26  2  0
 26 27  1  0
 26 50  1  0
 27 28  2  0
 27 51  1  0
 28 29  1  0
 28 52  1  0
 29 30  1  0
 29 31  2  0
 30 53  1  0
 31 54  1  0
 32 33  1  0
 33 55  1  0
M  CHG  1  18   1
M  END
>  <DOCK_score>  (1) 
-44.486626

>  <SMILES>  (1) 
Cc1ccc([C@H](C)Oc2ccccc2CC([NH3+])C(=O)Nc2cccc(O)c2)nc1

$$$$
