N#C[C@@H](CNc1nc(-c2n[nH]cc2C[NH2+]CC=CCCl)c[nH]1)Cc1ccccc1
     RDKit          3D

 54 56  0  0  1  0  0  0  0  0999 V2000
  129.8557  135.3869  163.7488 N   0  0  0  0  0  0  0  0  0  0  0  0
  128.9250  136.0279  163.8650 C   0  0  0  0  0  0  0  0  0  0  0  0
  127.7191  136.8586  164.0154 C   0  0  1  0  0  0  0  0  0  0  0  0
  127.9649  137.7566  164.5821 H   0  0  0  0  0  0  0  0  0  0  0  0
  127.1969  137.2546  162.6329 C   0  0  0  0  0  0  0  0  0  0  0  0
  126.4359  136.1412  162.0608 N   0  0  0  0  0  0  0  0  0  0  0  0
  127.0784  135.1877  161.2896 C   0  0  0  0  0  0  0  0  0  0  0  0
  128.3572  135.1733  161.0020 N   0  0  0  0  0  0  0  0  0  0  0  0
  128.6260  134.0948  160.2245 C   0  0  0  0  0  0  0  0  0  0  0  0
  129.9550  133.7195  159.6809 C   0  0  0  0  0  0  0  0  0  0  0  0
  130.2167  132.6701  158.9308 N   0  0  0  0  0  0  0  0  0  0  0  0
  131.5850  132.6790  158.6316 N   0  0  0  0  0  0  0  0  0  0  0  0
  132.0543  132.0224  158.0936 H   0  0  0  0  0  0  0  0  0  0  0  0
  132.1374  133.7607  159.2217 C   0  0  0  0  0  0  0  0  0  0  0  0
  131.1602  134.4205  159.8811 C   0  0  0  0  0  0  0  0  0  0  0  0
  131.3291  135.6836  160.6858 C   0  0  0  0  0  0  0  0  0  0  0  0
  132.1632  136.6333  159.9372 N   0  0  0  0  0  0  0  0  0  0  0  0
  133.0679  136.2219  159.7631 H   0  0  0  0  0  0  0  0  0  0  0  0
  131.7182  136.8514  159.0581 H   0  0  0  0  0  0  0  0  0  0  0  0
  132.3276  137.8644  160.7215 C   0  0  0  0  0  0  0  0  0  0  0  0
  133.1832  138.8388  159.9535 C   0  0  0  0  0  0  0  0  0  0  0  0
  134.4843  138.8287  160.1052 C   0  0  0  0  0  0  0  0  0  0  0  0
  135.3400  139.8031  159.3372 C   0  0  0  0  0  0  0  0  0  0  0  0
  136.2567  140.8391  160.4935 Cl  0  0  0  0  0  0  0  0  0  0  0  0
  127.4671  133.4171  160.0367 C   0  0  0  0  0  0  0  0  0  0  0  0
  126.4877  134.1076  160.7099 N   0  0  0  0  0  0  0  0  0  0  0  0
  125.5489  133.8690  160.7622 H   0  0  0  0  0  0  0  0  0  0  0  0
  126.6428  136.0649  164.7590 C   0  0  0  0  0  0  0  0  0  0  0  0
  126.9282  136.0957  166.2384 C   0  0  0  0  0  0  0  0  0  0  0  0
  127.7134  135.1128  166.8114 C   0  0  0  0  0  0  0  0  0  0  0  0
  127.9790  135.1437  168.1676 C   0  0  0  0  0  0  0  0  0  0  0  0
  127.4508  136.1514  168.9526 C   0  0  0  0  0  0  0  0  0  0  0  0
  126.6613  137.1313  168.3806 C   0  0  0  0  0  0  0  0  0  0  0  0
  126.4000  137.1034  167.0235 C   0  0  0  0  0  0  0  0  0  0  0  0
  128.0378  137.4929  161.9816 H   0  0  0  0  0  0  0  0  0  0  0  0
  126.5502  138.1272  162.7251 H   0  0  0  0  0  0  0  0  0  0  0  0
  125.4820  136.0721  162.2224 H   0  0  0  0  0  0  0  0  0  0  0  0
  133.1783  134.0456  159.1780 H   0  0  0  0  0  0  0  0  0  0  0  0
  130.3517  136.1279  160.8736 H   0  0  0  0  0  0  0  0  0  0  0  0
  131.8097  135.4480  161.6351 H   0  0  0  0  0  0  0  0  0  0  0  0
  131.3501  138.3088  160.9093 H   0  0  0  0  0  0  0  0  0  0  0  0
  132.8082  137.6288  161.6710 H   0  0  0  0  0  0  0  0  0  0  0  0
  132.7237  139.5450  159.2779 H   0  0  0  0  0  0  0  0  0  0  0  0
  134.9439  138.1224  160.7807 H   0  0  0  0  0  0  0  0  0  0  0  0
  136.0401  139.2538  158.7076 H   0  0  0  0  0  0  0  0  0  0  0  0
  134.7045  140.4304  158.7121 H   0  0  0  0  0  0  0  0  0  0  0  0
  127.3382  132.5084  159.4673 H   0  0  0  0  0  0  0  0  0  0  0  0
  125.6663  136.5100  164.5679 H   0  0  0  0  0  0  0  0  0  0  0  0
  126.6461  135.0325  164.4096 H   0  0  0  0  0  0  0  0  0  0  0  0
  128.1224  134.3230  166.1987 H   0  0  0  0  0  0  0  0  0  0  0  0
  128.5956  134.3778  168.6146 H   0  0  0  0  0  0  0  0  0  0  0  0
  127.6548  136.1729  170.0130 H   0  0  0  0  0  0  0  0  0  0  0  0
  126.2483  137.9184  168.9940 H   0  0  0  0  0  0  0  0  0  0  0  0
  125.7828  137.8687  166.5765 H   0  0  0  0  0  0  0  0  0  0  0  0
  1  2  3  0
  2  3  1  0
  3  4  1  1
  3  5  1  0
  3 28  1  0
  5  6  1  0
  5 35  1  0
  5 36  1  0
  6  7  1  0
  6 37  1  0
  7 26  1  0
  7  8  2  0
  8  9  1  0
  9 10  1  0
  9 25  2  0
 10 15  1  0
 10 11  2  0
 11 12  1  0
 12 13  1  0
 12 14  1  0
 14 15  2  0
 14 38  1  0
 15 16  1  0
 16 17  1  0
 16 39  1  0
 16 40  1  0
 17 18  1  0
 17 19  1  0
 17 20  1  0
 20 21  1  0
 20 41  1  0
 20 42  1  0
 21 22  2  0
 21 43  1  0
 22 23  1  0
 22 44  1  0
 23 24  1  0
 23 45  1  0
 23 46  1  0
 25 26  1  0
 25 47  1  0
 26 27  1  0
 28 29  1  0
 28 48  1  0
 28 49  1  0
 29 34  1  0
 29 30  2  0
 30 31  1  0
 30 50  1  0
 31 32  2  0
 31 51  1  0
 32 33  1  0
 32 52  1  0
 33 34  2  0
 33 53  1  0
 34 54  1  0
M  CHG  1  17   1
M  END
>  <DOCK_score>  (1) 
-48.764301

>  <SMILES>  (1) 
N#C[C@@H](CNc1nc(-c2n[nH]cc2C[NH2+]CC=CCCl)c[nH]1)Cc1ccccc1

$$$$
