C[C@@H](CCc1c[nH]c2ccccc12)Nc1[nH]cc(CCC(=O)N[C@H]2CCC(=O)NC2)[nH+]1
     RDKit          3D

 62 65  0  0  1  0  0  0  0  0999 V2000
  132.9332  133.8009  161.4446 C   0  0  0  0  0  0  0  0  0  0  0  0
  132.1069  135.0808  161.3027 C   0  0  1  0  0  0  0  0  0  0  0  0
  131.2955  135.0720  162.0302 H   0  0  0  0  0  0  0  0  0  0  0  0
  133.0025  136.2961  161.5519 C   0  0  0  0  0  0  0  0  0  0  0  0
  132.1762  137.5760  161.4100 C   0  0  0  0  0  0  0  0  0  0  0  0
  133.0582  138.7730  161.6556 C   0  0  0  0  0  0  0  0  0  0  0  0
  133.2897  139.3652  162.8379 C   0  0  0  0  0  0  0  0  0  0  0  0
  134.1424  140.4221  162.6712 N   0  0  0  0  0  0  0  0  0  0  0  0
  134.4561  141.0025  163.3823 H   0  0  0  0  0  0  0  0  0  0  0  0
  134.4892  140.5388  161.3438 C   0  0  0  0  0  0  0  0  0  0  0  0
  135.3076  141.4178  160.6415 C   0  0  0  0  0  0  0  0  0  0  0  0
  135.4583  141.2724  159.2799 C   0  0  0  0  0  0  0  0  0  0  0  0
  134.8009  140.2565  158.5994 C   0  0  0  0  0  0  0  0  0  0  0  0
  133.9925  139.3823  159.2693 C   0  0  0  0  0  0  0  0  0  0  0  0
  133.8305  139.5073  160.6505 C   0  0  0  0  0  0  0  0  0  0  0  0
  131.5493  135.1544  159.9499 N   0  0  0  0  0  0  0  0  0  0  0  0
  130.3090  134.5998  159.6811 C   0  0  0  0  0  0  0  0  0  0  0  0
  129.6817  134.6009  158.4741 N   0  0  0  0  0  0  0  0  0  0  0  0
  130.0176  134.9865  157.6498 H   0  0  0  0  0  0  0  0  0  0  0  0
  128.4773  133.9565  158.6456 C   0  0  0  0  0  0  0  0  0  0  0  0
  128.4147  133.5796  159.9339 C   0  0  0  0  0  0  0  0  0  0  0  0
  127.2753  132.8355  160.5812 C   0  0  0  0  0  0  0  0  0  0  0  0
  126.2579  133.8377  161.1301 C   0  0  0  0  0  0  0  0  0  0  0  0
  126.9251  134.7222  162.1518 C   0  0  0  0  0  0  0  0  0  0  0  0
  127.8473  134.2952  162.8136 O   0  0  0  0  0  0  0  0  0  0  0  0
  126.4968  135.9877  162.3299 N   0  0  0  0  0  0  0  0  0  0  0  0
  127.1455  136.8475  163.3229 C   0  0  1  0  0  0  0  0  0  0  0  0
  128.1923  136.5617  163.4261 H   0  0  0  0  0  0  0  0  0  0  0  0
  127.0535  138.3111  162.8748 C   0  0  0  0  0  0  0  0  0  0  0  0
  127.8923  139.1633  163.8304 C   0  0  0  0  0  0  0  0  0  0  0  0
  127.5497  138.8236  165.2526 C   0  0  0  0  0  0  0  0  0  0  0  0
  127.8673  139.6069  166.1223 O   0  0  0  0  0  0  0  0  0  0  0  0
  126.9152  137.7065  165.6104 N   0  0  0  0  0  0  0  0  0  0  0  0
  126.4355  136.7021  164.6694 C   0  0  0  0  0  0  0  0  0  0  0  0
  129.5395  133.9847  160.5477 N   0  0  0  0  0  0  0  0  0  0  0  0
  129.7495  133.8445  161.4842 H   0  0  0  0  0  0  0  0  0  0  0  0
  132.2953  132.9350  161.2670 H   0  0  0  0  0  0  0  0  0  0  0  0
  133.7448  133.8097  160.7170 H   0  0  0  0  0  0  0  0  0  0  0  0
  133.3482  133.7461  162.4511 H   0  0  0  0  0  0  0  0  0  0  0  0
  133.4175  136.2413  162.5584 H   0  0  0  0  0  0  0  0  0  0  0  0
  133.8139  136.3049  160.8243 H   0  0  0  0  0  0  0  0  0  0  0  0
  131.7612  137.6309  160.4036 H   0  0  0  0  0  0  0  0  0  0  0  0
  131.3646  137.5672  162.1376 H   0  0  0  0  0  0  0  0  0  0  0  0
  132.8655  139.0534  163.7810 H   0  0  0  0  0  0  0  0  0  0  0  0
  135.8229  142.2115  161.1619 H   0  0  0  0  0  0  0  0  0  0  0  0
  136.0936  141.9559  158.7364 H   0  0  0  0  0  0  0  0  0  0  0  0
  134.9295  140.1566  157.5317 H   0  0  0  0  0  0  0  0  0  0  0  0
  133.4841  138.5946  158.7331 H   0  0  0  0  0  0  0  0  0  0  0  0
  132.0486  135.5916  159.2426 H   0  0  0  0  0  0  0  0  0  0  0  0
  127.7271  133.7840  157.8882 H   0  0  0  0  0  0  0  0  0  0  0  0
  126.7927  132.1956  159.8423 H   0  0  0  0  0  0  0  0  0  0  0  0
  127.6584  132.2230  161.3973 H   0  0  0  0  0  0  0  0  0  0  0  0
  125.8747  134.4503  160.3141 H   0  0  0  0  0  0  0  0  0  0  0  0
  125.4338  133.2995  161.5983 H   0  0  0  0  0  0  0  0  0  0  0  0
  125.7593  136.3291  161.8006 H   0  0  0  0  0  0  0  0  0  0  0  0
  127.4399  138.4092  161.8604 H   0  0  0  0  0  0  0  0  0  0  0  0
  126.0146  138.6397  162.9059 H   0  0  0  0  0  0  0  0  0  0  0  0
  128.9503  138.9675  163.6562 H   0  0  0  0  0  0  0  0  0  0  0  0
  127.6862  140.2184  163.6504 H   0  0  0  0  0  0  0  0  0  0  0  0
  126.7636  137.5529  166.5560 H   0  0  0  0  0  0  0  0  0  0  0  0
  125.3621  136.8264  164.5261 H   0  0  0  0  0  0  0  0  0  0  0  0
  126.6290  135.7085  165.0734 H   0  0  0  0  0  0  0  0  0  0  0  0
  1  2  1  0
  1 37  1  0
  1 38  1  0
  1 39  1  0
  2  3  1  1
  2  4  1  0
  2 16  1  0
  4  5  1  0
  4 40  1  0
  4 41  1  0
  5  6  1  0
  5 42  1  0
  5 43  1  0
  6 15  1  0
  6  7  2  0
  7  8  1  0
  7 44  1  0
  8  9  1  0
  8 10  1  0
 10 15  2  0
 10 11  1  0
 11 12  2  0
 11 45  1  0
 12 13  1  0
 12 46  1  0
 13 14  2  0
 13 47  1  0
 14 15  1  0
 14 48  1  0
 16 49  1  0
 17 16  1  0
 17 35  2  0
 17 18  1  0
 18 19  1  0
 18 20  1  0
 20 21  2  0
 20 50  1  0
 21 22  1  0
 21 35  1  0
 22 23  1  0
 22 51  1  0
 22 52  1  0
 23 24  1  0
 23 53  1  0
 23 54  1  0
 24 25  2  0
 24 26  1  0
 26 27  1  0
 26 55  1  0
 27 28  1  1
 27 34  1  0
 27 29  1  0
 29 30  1  0
 29 56  1  0
 29 57  1  0
 30 31  1  0
 30 58  1  0
 30 59  1  0
 31 32  2  0
 31 33  1  0
 33 34  1  0
 33 60  1  0
 34 61  1  0
 34 62  1  0
 35 36  1  0
M  CHG  1  35   1
M  END
>  <DOCK_score>  (1) 
-47.114918

>  <SMILES>  (1) 
C[C@@H](CCc1c[nH]c2ccccc12)Nc1[nH]cc(CCC(=O)N[C@H]2CCC(=O)NC2)[nH+]1

$$$$
