Nc1ccc(Sc2cc(Nc3[nH]cc(-c4ccccc4)[nH+]3)c(F)cc2O)cc1
     RDKit          3D

 46 49  0  0  1  0  0  0  0  0999 V2000
  132.9580  141.3985  161.8677 N   0  0  0  0  0  0  0  0  0  0  0  0
  132.1009  140.3271  162.1453 C   0  0  0  0  0  0  0  0  0  0  0  0
  130.7494  140.5583  162.3658 C   0  0  0  0  0  0  0  0  0  0  0  0
  129.9040  139.5019  162.6401 C   0  0  0  0  0  0  0  0  0  0  0  0
  130.4053  138.2073  162.6954 C   0  0  0  0  0  0  0  0  0  0  0  0
  129.3267  136.8589  163.0459 S   0  0  0  0  0  0  0  0  0  0  0  0
  128.7771  136.3650  161.4462 C   0  0  0  0  0  0  0  0  0  0  0  0
  129.6959  135.9435  160.4955 C   0  0  0  0  0  0  0  0  0  0  0  0
  129.2611  135.5604  159.2350 C   0  0  0  0  0  0  0  0  0  0  0  0
  130.1881  135.1400  158.2718 N   0  0  0  0  0  0  0  0  0  0  0  0
  130.1009  133.8658  157.7365 C   0  0  0  0  0  0  0  0  0  0  0  0
  129.6194  132.7668  158.3797 N   0  0  0  0  0  0  0  0  0  0  0  0
  129.2793  132.7354  159.2875 H   0  0  0  0  0  0  0  0  0  0  0  0
  129.7019  131.7113  157.5047 C   0  0  0  0  0  0  0  0  0  0  0  0
  130.2394  132.1928  156.3564 C   0  0  0  0  0  0  0  0  0  0  0  0
  130.5208  131.4093  155.1287 C   0  0  0  0  0  0  0  0  0  0  0  0
  129.9045  131.7488  153.9257 C   0  0  0  0  0  0  0  0  0  0  0  0
  130.1753  131.0203  152.7852 C   0  0  0  0  0  0  0  0  0  0  0  0
  131.0467  129.9469  152.8375 C   0  0  0  0  0  0  0  0  0  0  0  0
  131.6564  129.6020  154.0299 C   0  0  0  0  0  0  0  0  0  0  0  0
  131.3983  130.3273  155.1752 C   0  0  0  0  0  0  0  0  0  0  0  0
  130.4735  133.5176  156.5289 N   0  0  0  0  0  0  0  0  0  0  0  0
  130.8559  134.1124  155.8649 H   0  0  0  0  0  0  0  0  0  0  0  0
  127.9048  135.5882  158.9289 C   0  0  0  0  0  0  0  0  0  0  0  0
  127.4819  135.2103  157.7027 F   0  0  0  0  0  0  0  0  0  0  0  0
  126.9880  136.0031  159.8785 C   0  0  0  0  0  0  0  0  0  0  0  0
  127.4191  136.3917  161.1365 C   0  0  0  0  0  0  0  0  0  0  0  0
  126.5163  136.7997  162.0691 O   0  0  0  0  0  0  0  0  0  0  0  0
  131.7583  137.9770  162.4799 C   0  0  0  0  0  0  0  0  0  0  0  0
  132.6024  139.0331  162.2006 C   0  0  0  0  0  0  0  0  0  0  0  0
  132.6079  142.3023  161.8294 H   0  0  0  0  0  0  0  0  0  0  0  0
  133.9020  141.2371  161.7137 H   0  0  0  0  0  0  0  0  0  0  0  0
  130.3597  141.5647  162.3232 H   0  0  0  0  0  0  0  0  0  0  0  0
  128.8531  139.6817  162.8119 H   0  0  0  0  0  0  0  0  0  0  0  0
  130.7486  135.9174  160.7354 H   0  0  0  0  0  0  0  0  0  0  0  0
  130.8909  135.7416  157.9801 H   0  0  0  0  0  0  0  0  0  0  0  0
  129.4007  130.6920  157.6963 H   0  0  0  0  0  0  0  0  0  0  0  0
  129.2204  132.5835  153.8848 H   0  0  0  0  0  0  0  0  0  0  0  0
  129.7023  131.2857  151.8511 H   0  0  0  0  0  0  0  0  0  0  0  0
  131.2521  129.3766  151.9436 H   0  0  0  0  0  0  0  0  0  0  0  0
  132.3362  128.7634  154.0648 H   0  0  0  0  0  0  0  0  0  0  0  0
  131.8755  130.0573  156.1058 H   0  0  0  0  0  0  0  0  0  0  0  0
  125.9352  136.0243  159.6388 H   0  0  0  0  0  0  0  0  0  0  0  0
  125.5993  136.7843  161.7622 H   0  0  0  0  0  0  0  0  0  0  0  0
  132.1490  136.9712  162.5269 H   0  0  0  0  0  0  0  0  0  0  0  0
  133.6534  138.8536  162.0286 H   0  0  0  0  0  0  0  0  0  0  0  0
  1  2  1  0
  1 31  1  0
  1 32  1  0
  2 30  2  0
  2  3  1  0
  3  4  2  0
  3 33  1  0
  4  5  1  0
  4 34  1  0
  5  6  1  0
  5 29  2  0
  6  7  1  0
  7 27  1  0
  7  8  2  0
  8  9  1  0
  8 35  1  0
  9 10  1  0
  9 24  2  0
 10 36  1  0
 11 10  1  0
 11 22  2  0
 11 12  1  0
 12 13  1  0
 12 14  1  0
 14 15  2  0
 14 37  1  0
 15 16  1  0
 15 22  1  0
 16 21  1  0
 16 17  2  0
 17 18  1  0
 17 38  1  0
 18 19  2  0
 18 39  1  0
 19 20  1  0
 19 40  1  0
 20 21  2  0
 20 41  1  0
 21 42  1  0
 22 23  1  0
 24 25  1  0
 24 26  1  0
 26 27  2  0
 26 43  1  0
 27 28  1  0
 28 44  1  0
 29 30  1  0
 29 45  1  0
 30 46  1  0
M  CHG  1  22   1
M  END
>  <DOCK_score>  (1) 
-54.701839

>  <SMILES>  (1) 
Nc1ccc(Sc2cc(Nc3[nH]cc(-c4ccccc4)[nH+]3)c(F)cc2O)cc1

$$$$
