Oc1cc(Nc2[nH]cc(-c3ccccc3)[nH+]2)c(Sc2ncc(-c3ccccc3)cn2)cc1Cl
     RDKit          3D

 52 56  0  0  1  0  0  0  0  0999 V2000
  126.6128  134.5182  161.1224 O   0  0  0  0  0  0  0  0  0  0  0  0
  127.6649  133.6932  160.8735 C   0  0  0  0  0  0  0  0  0  0  0  0
  128.9314  134.2246  160.6821 C   0  0  0  0  0  0  0  0  0  0  0  0
  130.0042  133.3835  160.4288 C   0  0  0  0  0  0  0  0  0  0  0  0
  131.2840  133.9179  160.2353 N   0  0  0  0  0  0  0  0  0  0  0  0
  131.6441  135.0980  160.8644 C   0  0  0  0  0  0  0  0  0  0  0  0
  131.1694  135.5343  162.0634 N   0  0  0  0  0  0  0  0  0  0  0  0
  130.5238  135.0788  162.6259 H   0  0  0  0  0  0  0  0  0  0  0  0
  131.7740  136.7383  162.3298 C   0  0  0  0  0  0  0  0  0  0  0  0
  132.6039  137.0008  161.2896 C   0  0  0  0  0  0  0  0  0  0  0  0
  133.4711  138.1954  161.1448 C   0  0  0  0  0  0  0  0  0  0  0  0
  133.7843  138.6832  159.8772 C   0  0  0  0  0  0  0  0  0  0  0  0
  134.5874  139.7981  159.7487 C   0  0  0  0  0  0  0  0  0  0  0  0
  135.0906  140.4247  160.8747 C   0  0  0  0  0  0  0  0  0  0  0  0
  134.7875  139.9419  162.1350 C   0  0  0  0  0  0  0  0  0  0  0  0
  133.9807  138.8311  162.2757 C   0  0  0  0  0  0  0  0  0  0  0  0
  132.4989  135.9788  160.4040 N   0  0  0  0  0  0  0  0  0  0  0  0
  132.9823  135.9089  159.5658 H   0  0  0  0  0  0  0  0  0  0  0  0
  129.8051  132.0044  160.3615 C   0  0  0  0  0  0  0  0  0  0  0  0
  131.1641  130.9321  160.0327 S   0  0  0  0  0  0  0  0  0  0  0  0
  131.0893  130.8738  158.2733 C   0  0  0  0  0  0  0  0  0  0  0  0
  131.2169  132.0002  157.5851 N   0  0  0  0  0  0  0  0  0  0  0  0
  131.1718  131.9965  156.2650 C   0  0  0  0  0  0  0  0  0  0  0  0
  130.9755  130.7852  155.5961 C   0  0  0  0  0  0  0  0  0  0  0  0
  130.9120  130.7363  154.1147 C   0  0  0  0  0  0  0  0  0  0  0  0
  131.3396  129.5980  153.4336 C   0  0  0  0  0  0  0  0  0  0  0  0
  131.2734  129.5561  152.0556 C   0  0  0  0  0  0  0  0  0  0  0  0
  130.7940  130.6451  151.3502 C   0  0  0  0  0  0  0  0  0  0  0  0
  130.3735  131.7796  152.0207 C   0  0  0  0  0  0  0  0  0  0  0  0
  130.4299  131.8304  153.3988 C   0  0  0  0  0  0  0  0  0  0  0  0
  130.8399  129.6213  156.3577 C   0  0  0  0  0  0  0  0  0  0  0  0
  130.9017  129.7056  157.6745 N   0  0  0  0  0  0  0  0  0  0  0  0
  128.5375  131.4782  160.5593 C   0  0  0  0  0  0  0  0  0  0  0  0
  127.4698  132.3205  160.8118 C   0  0  0  0  0  0  0  0  0  0  0  0
  125.8825  131.6595  161.0514 Cl  0  0  0  0  0  0  0  0  0  0  0  0
  126.8458  135.4565  161.1465 H   0  0  0  0  0  0  0  0  0  0  0  0
  129.0821  135.2930  160.7307 H   0  0  0  0  0  0  0  0  0  0  0  0
  131.9184  133.4616  159.6605 H   0  0  0  0  0  0  0  0  0  0  0  0
  131.6210  137.3559  163.2023 H   0  0  0  0  0  0  0  0  0  0  0  0
  133.3956  138.1920  158.9973 H   0  0  0  0  0  0  0  0  0  0  0  0
  134.8270  140.1796  158.7672 H   0  0  0  0  0  0  0  0  0  0  0  0
  135.7224  141.2943  160.7693 H   0  0  0  0  0  0  0  0  0  0  0  0
  135.1825  140.4354  163.0107 H   0  0  0  0  0  0  0  0  0  0  0  0
  133.7444  138.4552  163.2603 H   0  0  0  0  0  0  0  0  0  0  0  0
  131.2804  132.9170  155.7107 H   0  0  0  0  0  0  0  0  0  0  0  0
  131.7182  128.7489  153.9832 H   0  0  0  0  0  0  0  0  0  0  0  0
  131.6003  128.6729  151.5271 H   0  0  0  0  0  0  0  0  0  0  0  0
  130.7481  130.6095  150.2717 H   0  0  0  0  0  0  0  0  0  0  0  0
  130.0002  132.6270  151.4650 H   0  0  0  0  0  0  0  0  0  0  0  0
  130.1014  132.7166  153.9214 H   0  0  0  0  0  0  0  0  0  0  0  0
  130.6873  128.6665  155.8766 H   0  0  0  0  0  0  0  0  0  0  0  0
  128.3829  130.4103  160.5116 H   0  0  0  0  0  0  0  0  0  0  0  0
  1  2  1  0
  1 36  1  0
  2 34  2  0
  2  3  1  0
  3  4  2  0
  3 37  1  0
  4  5  1  0
  4 19  1  0
  5 38  1  0
  6  5  1  0
  6 17  2  0
  6  7  1  0
  7  8  1  0
  7  9  1  0
  9 10  2  0
  9 39  1  0
 10 11  1  0
 10 17  1  0
 11 16  1  0
 11 12  2  0
 12 13  1  0
 12 40  1  0
 13 14  2  0
 13 41  1  0
 14 15  1  0
 14 42  1  0
 15 16  2  0
 15 43  1  0
 16 44  1  0
 17 18  1  0
 19 20  1  0
 19 33  2  0
 20 21  1  0
 21 32  1  0
 21 22  2  0
 22 23  1  0
 23 24  2  0
 23 45  1  0
 24 25  1  0
 24 31  1  0
 25 30  1  0
 25 26  2  0
 26 27  1  0
 26 46  1  0
 27 28  2  0
 27 47  1  0
 28 29  1  0
 28 48  1  0
 29 30  2  0
 29 49  1  0
 30 50  1  0
 31 32  2  0
 31 51  1  0
 33 34  1  0
 33 52  1  0
 34 35  1  0
M  CHG  1  17   1
M  END
>  <DOCK_score>  (1) 
-61.11599

>  <SMILES>  (1) 
Oc1cc(Nc2[nH]cc(-c3ccccc3)[nH+]2)c(Sc2ncc(-c3ccccc3)cn2)cc1Cl

$$$$
