Cc1cccc2c1CCC2Nc1cc[nH+]c(N[C@H](C)c2cccc(O)c2)c1
     RDKit          3D

 53 56  0  0  1  0  0  0  0  0999 V2000
  138.1507  137.4304  166.5574 C   0  0  0  0  0  0  0  0  0  0  0  0
  137.3933  136.5148  165.6307 C   0  0  0  0  0  0  0  0  0  0  0  0
  137.8045  135.2059  165.4682 C   0  0  0  0  0  0  0  0  0  0  0  0
  137.1073  134.3638  164.6228 C   0  0  0  0  0  0  0  0  0  0  0  0
  136.0065  134.8353  163.9340 C   0  0  0  0  0  0  0  0  0  0  0  0
  135.5928  136.1467  164.0955 C   0  0  0  0  0  0  0  0  0  0  0  0
  136.2873  136.9876  164.9452 C   0  0  0  0  0  0  0  0  0  0  0  0
  135.6425  138.3572  164.9491 C   0  0  0  0  0  0  0  0  0  0  0  0
  134.2338  138.1422  164.3562 C   0  0  0  0  0  0  0  0  0  0  0  0
  134.4339  136.8938  163.4708 C   0  0  2  0  0  0  0  0  0  0  0  0
  133.2274  136.0629  163.4834 N   0  0  0  0  0  0  0  0  0  0  0  0
  132.6018  135.7262  162.2865 C   0  0  0  0  0  0  0  0  0  0  0  0
  133.3375  135.5951  161.1063 C   0  0  0  0  0  0  0  0  0  0  0  0
  132.6858  135.2556  159.9415 C   0  0  0  0  0  0  0  0  0  0  0  0
  131.3790  135.0639  159.9256 N   0  0  0  0  0  0  0  0  0  0  0  0
  130.9467  134.8293  159.0896 H   0  0  0  0  0  0  0  0  0  0  0  0
  130.6424  135.1829  161.0208 C   0  0  0  0  0  0  0  0  0  0  0  0
  129.2699  134.9711  160.9535 N   0  0  0  0  0  0  0  0  0  0  0  0
  128.6449  134.6184  159.6762 C   0  0  2  0  0  0  0  0  0  0  0  0
  129.2857  133.9192  159.1391 H   0  0  0  0  0  0  0  0  0  0  0  0
  128.4525  135.8826  158.8363 C   0  0  0  0  0  0  0  0  0  0  0  0
  127.3056  133.9770  159.9326 C   0  0  0  0  0  0  0  0  0  0  0  0
  127.0621  132.6876  159.4960 C   0  0  0  0  0  0  0  0  0  0  0  0
  125.8364  132.0943  159.7348 C   0  0  0  0  0  0  0  0  0  0  0  0
  124.8476  132.7928  160.4005 C   0  0  0  0  0  0  0  0  0  0  0  0
  125.0874  134.0883  160.8345 C   0  0  0  0  0  0  0  0  0  0  0  0
  124.1161  134.7776  161.4892 O   0  0  0  0  0  0  0  0  0  0  0  0
  126.3204  134.6794  160.5987 C   0  0  0  0  0  0  0  0  0  0  0  0
  131.2272  135.5173  162.2347 C   0  0  0  0  0  0  0  0  0  0  0  0
  137.7276  137.3638  167.5598 H   0  0  0  0  0  0  0  0  0  0  0  0
  139.1990  137.1333  166.5850 H   0  0  0  0  0  0  0  0  0  0  0  0
  138.0731  138.4565  166.1978 H   0  0  0  0  0  0  0  0  0  0  0  0
  138.6680  134.8401  166.0040 H   0  0  0  0  0  0  0  0  0  0  0  0
  137.4249  133.3392  164.4977 H   0  0  0  0  0  0  0  0  0  0  0  0
  135.4643  134.1777  163.2707 H   0  0  0  0  0  0  0  0  0  0  0  0
  135.5700  138.7381  165.9677 H   0  0  0  0  0  0  0  0  0  0  0  0
  136.2138  139.0459  164.3266 H   0  0  0  0  0  0  0  0  0  0  0  0
  133.5075  137.9453  165.1448 H   0  0  0  0  0  0  0  0  0  0  0  0
  133.9302  139.0008  163.7575 H   0  0  0  0  0  0  0  0  0  0  0  0
  134.6802  137.1890  162.4508 H   0  0  0  0  0  0  0  0  0  0  0  0
  132.8646  135.7474  164.3258 H   0  0  0  0  0  0  0  0  0  0  0  0
  134.4057  135.7546  161.1080 H   0  0  0  0  0  0  0  0  0  0  0  0
  133.2505  135.1491  159.0270 H   0  0  0  0  0  0  0  0  0  0  0  0
  128.7262  135.0569  161.7522 H   0  0  0  0  0  0  0  0  0  0  0  0
  127.8118  136.5818  159.3735 H   0  0  0  0  0  0  0  0  0  0  0  0
  129.4213  136.3466  158.6509 H   0  0  0  0  0  0  0  0  0  0  0  0
  127.9875  135.6201  157.8860 H   0  0  0  0  0  0  0  0  0  0  0  0
  127.8322  132.1417  158.9713 H   0  0  0  0  0  0  0  0  0  0  0  0
  125.6501  131.0857  159.3963 H   0  0  0  0  0  0  0  0  0  0  0  0
  123.8885  132.3306  160.5825 H   0  0  0  0  0  0  0  0  0  0  0  0
  124.3768  135.6709  161.7518 H   0  0  0  0  0  0  0  0  0  0  0  0
  126.5094  135.6880  160.9353 H   0  0  0  0  0  0  0  0  0  0  0  0
  130.6242  135.6143  163.1254 H   0  0  0  0  0  0  0  0  0  0  0  0
  1  2  1  0
  1 30  1  0
  1 31  1  0
  1 32  1  0
  2  7  2  0
  2  3  1  0
  3  4  2  0
  3 33  1  0
  4  5  1  0
  4 34  1  0
  5  6  2  0
  5 35  1  0
  6 10  1  0
  6  7  1  0
  7  8  1  0
  8  9  1  0
  8 36  1  0
  8 37  1  0
  9 10  1  0
  9 38  1  0
  9 39  1  0
 10 11  1  0
 10 40  1  6
 11 12  1  0
 11 41  1  0
 12 29  1  0
 12 13  2  0
 13 14  1  0
 13 42  1  0
 14 15  2  0
 14 43  1  0
 15 16  1  0
 15 17  1  0
 17 18  1  0
 17 29  2  0
 18 19  1  0
 18 44  1  0
 19 20  1  6
 19 21  1  0
 19 22  1  0
 21 45  1  0
 21 46  1  0
 21 47  1  0
 22 28  1  0
 22 23  2  0
 23 24  1  0
 23 48  1  0
 24 25  2  0
 24 49  1  0
 25 26  1  0
 25 50  1  0
 26 27  1  0
 26 28  2  0
 27 51  1  0
 28 52  1  0
 29 53  1  0
M  CHG  1  15   1
M  END
>  <DOCK_score>  (1) 
-41.152557

>  <SMILES>  (1) 
Cc1cccc2c1CCC2Nc1cc[nH+]c(N[C@H](C)c2cccc(O)c2)c1

$$$$
