c1ccc(CCCc2cccc(N[C@@H]3C[C@H]4C[C@@H]3C[C@H]4NC3=[NH+]CCN3)c2)cc1
     RDKit          3D

 62 66  0  0  1  0  0  0  0  0999 V2000
  133.4034  142.6211  167.0658 C   0  0  0  0  0  0  0  0  0  0  0  0
  132.6889  141.9511  166.0904 C   0  0  0  0  0  0  0  0  0  0  0  0
  133.3564  141.2693  165.0903 C   0  0  0  0  0  0  0  0  0  0  0  0
  134.7385  141.2579  165.0650 C   0  0  0  0  0  0  0  0  0  0  0  0
  135.4661  140.5148  163.9745 C   0  0  0  0  0  0  0  0  0  0  0  0
  135.7114  139.0710  164.4175 C   0  0  0  0  0  0  0  0  0  0  0  0
  136.4500  138.3165  163.3102 C   0  0  0  0  0  0  0  0  0  0  0  0
  135.6155  138.3222  162.0554 C   0  0  0  0  0  0  0  0  0  0  0  0
  135.7584  139.3451  161.1359 C   0  0  0  0  0  0  0  0  0  0  0  0
  134.9946  139.3543  159.9830 C   0  0  0  0  0  0  0  0  0  0  0  0
  134.0898  138.3383  159.7441 C   0  0  0  0  0  0  0  0  0  0  0  0
  133.9397  137.3127  160.6685 C   0  0  0  0  0  0  0  0  0  0  0  0
  133.0219  136.2865  160.4325 N   0  0  0  0  0  0  0  0  0  0  0  0
  132.3717  135.6122  161.5589 C   0  0  2  0  0  0  0  0  0  0  0  0
  133.0841  135.4536  162.3684 H   0  0  0  0  0  0  0  0  0  0  0  0
  131.7632  134.2488  161.1170 C   0  0  0  0  0  0  0  0  0  0  0  0
  130.2345  134.4127  161.3770 C   0  0  1  0  0  0  0  0  0  0  0  0
  129.6605  133.4883  161.4427 H   0  0  0  0  0  0  0  0  0  0  0  0
  130.2538  135.3102  162.6644 C   0  0  0  0  0  0  0  0  0  0  0  0
  131.1539  136.4459  162.0619 C   0  0  2  0  0  0  0  0  0  0  0  0
  131.3770  137.2845  162.7215 H   0  0  0  0  0  0  0  0  0  0  0  0
  130.3553  136.7904  160.7677 C   0  0  0  0  0  0  0  0  0  0  0  0
  129.7464  135.4439  160.3142 C   0  0  1  0  0  0  0  0  0  0  0  0
  128.6579  135.5008  160.3116 H   0  0  0  0  0  0  0  0  0  0  0  0
  130.2431  135.0809  158.9846 N   0  0  0  0  0  0  0  0  0  0  0  0
  129.9056  133.8750  158.4341 C   0  0  0  0  0  0  0  0  0  0  0  0
  130.3191  133.4956  157.2361 N   0  0  0  0  0  0  0  0  0  0  0  0
  130.8849  134.0175  156.6460 H   0  0  0  0  0  0  0  0  0  0  0  0
  129.7879  132.1555  156.9418 C   0  0  0  0  0  0  0  0  0  0  0  0
  128.9646  131.8117  158.1996 C   0  0  0  0  0  0  0  0  0  0  0  0
  129.1348  132.9968  159.0546 N   0  0  0  0  0  0  0  0  0  0  0  0
  134.7087  137.3066  161.8256 C   0  0  0  0  0  0  0  0  0  0  0  0
  135.4530  141.9237  166.0434 C   0  0  0  0  0  0  0  0  0  0  0  0
  134.7855  142.6087  167.0415 C   0  0  0  0  0  0  0  0  0  0  0  0
  132.8818  143.1540  167.8472 H   0  0  0  0  0  0  0  0  0  0  0  0
  131.6091  141.9606  166.1097 H   0  0  0  0  0  0  0  0  0  0  0  0
  132.7980  140.7460  164.3282 H   0  0  0  0  0  0  0  0  0  0  0  0
  136.4212  141.0018  163.7778 H   0  0  0  0  0  0  0  0  0  0  0  0
  134.8624  140.5188  163.0669 H   0  0  0  0  0  0  0  0  0  0  0  0
  134.7561  138.5841  164.6141 H   0  0  0  0  0  0  0  0  0  0  0  0
  136.3149  139.0669  165.3250 H   0  0  0  0  0  0  0  0  0  0  0  0
  136.6248  137.2879  163.6257 H   0  0  0  0  0  0  0  0  0  0  0  0
  137.4052  138.8035  163.1135 H   0  0  0  0  0  0  0  0  0  0  0  0
  136.4683  140.1382  161.3183 H   0  0  0  0  0  0  0  0  0  0  0  0
  135.1086  140.1546  159.2668 H   0  0  0  0  0  0  0  0  0  0  0  0
  133.4968  138.3438  158.8415 H   0  0  0  0  0  0  0  0  0  0  0  0
  132.8153  136.0204  159.5230 H   0  0  0  0  0  0  0  0  0  0  0  0
  132.1626  133.4239  161.7068 H   0  0  0  0  0  0  0  0  0  0  0  0
  131.9528  134.0853  160.0561 H   0  0  0  0  0  0  0  0  0  0  0  0
  129.2592  135.6718  162.9255 H   0  0  0  0  0  0  0  0  0  0  0  0
  130.7351  134.8094  163.5046 H   0  0  0  0  0  0  0  0  0  0  0  0
  129.5661  137.5092  160.9883 H   0  0  0  0  0  0  0  0  0  0  0  0
  131.0238  137.1842  160.0023 H   0  0  0  0  0  0  0  0  0  0  0  0
  130.8113  135.6958  158.4946 H   0  0  0  0  0  0  0  0  0  0  0  0
  130.5979  131.4390  156.8055 H   0  0  0  0  0  0  0  0  0  0  0  0
  129.1482  132.1824  156.0596 H   0  0  0  0  0  0  0  0  0  0  0  0
  129.3646  130.9240  158.6896 H   0  0  0  0  0  0  0  0  0  0  0  0
  127.9140  131.6686  157.9465 H   0  0  0  0  0  0  0  0  0  0  0  0
  128.7435  133.1157  159.9342 H   0  0  0  0  0  0  0  0  0  0  0  0
  134.5971  136.5085  162.5446 H   0  0  0  0  0  0  0  0  0  0  0  0
  136.5328  141.9110  166.0263 H   0  0  0  0  0  0  0  0  0  0  0  0
  135.3437  143.1317  167.8038 H   0  0  0  0  0  0  0  0  0  0  0  0
  1 34  2  0
  1  2  1  0
  1 35  1  0
  2  3  2  0
  2 36  1  0
  3  4  1  0
  3 37  1  0
  4  5  1  0
  4 33  2  0
  5  6  1  0
  5 38  1  0
  5 39  1  0
  6  7  1  0
  6 40  1  0
  6 41  1  0
  7  8  1  0
  7 42  1  0
  7 43  1  0
  8 32  1  0
  8  9  2  0
  9 10  1  0
  9 44  1  0
 10 11  2  0
 10 45  1  0
 11 12  1  0
 11 46  1  0
 12 13  1  0
 12 32  2  0
 13 14  1  0
 13 47  1  0
 14 15  1  1
 14 20  1  0
 14 16  1  0
 16 17  1  0
 16 48  1  0
 16 49  1  0
 17 18  1  1
 17 23  1  0
 17 19  1  0
 19 20  1  0
 19 50  1  0
 19 51  1  0
 20 21  1  1
 20 22  1  0
 22 23  1  0
 22 52  1  0
 22 53  1  0
 23 24  1  6
 23 25  1  0
 25 26  1  0
 25 54  1  0
 26 31  2  0
 26 27  1  0
 27 28  1  0
 27 29  1  0
 29 30  1  0
 29 55  1  0
 29 56  1  0
 30 31  1  0
 30 57  1  0
 30 58  1  0
 31 59  1  0
 32 60  1  0
 33 34  1  0
 33 61  1  0
 34 62  1  0
M  CHG  1  31   1
M  END
>  <DOCK_score>  (1) 
-55.949364

>  <SMILES>  (1) 
c1ccc(CCCc2cccc(N[C@@H]3C[C@H]4C[C@@H]3C[C@H]4NC3=[NH+]CCN3)c2)cc1

$$$$
