CCc1ccc(-c2c[nH]c(N[C@H](Cc3ccccc3)c3ccsc3)[nH+]2)cc1
     RDKit          3D

 51 54  0  0  1  0  0  0  0  0999 V2000
  130.2863  129.0690  151.6516 C   0  0  0  0  0  0  0  0  0  0  0  0
  131.5578  129.7072  152.2146 C   0  0  0  0  0  0  0  0  0  0  0  0
  131.2221  130.4761  153.4665 C   0  0  0  0  0  0  0  0  0  0  0  0
  131.2706  129.8449  154.6965 C   0  0  0  0  0  0  0  0  0  0  0  0
  130.9696  130.5456  155.8468 C   0  0  0  0  0  0  0  0  0  0  0  0
  130.6053  131.8885  155.7664 C   0  0  0  0  0  0  0  0  0  0  0  0
  130.2753  132.6454  156.9986 C   0  0  0  0  0  0  0  0  0  0  0  0
  129.7418  132.1293  158.1335 C   0  0  0  0  0  0  0  0  0  0  0  0
  129.5998  133.1715  159.0170 N   0  0  0  0  0  0  0  0  0  0  0  0
  129.2433  133.1168  159.9175 H   0  0  0  0  0  0  0  0  0  0  0  0
  130.0512  134.2950  158.3957 C   0  0  0  0  0  0  0  0  0  0  0  0
  130.0800  135.5648  158.9465 N   0  0  0  0  0  0  0  0  0  0  0  0
  129.5965  135.7820  160.3123 C   0  0  2  0  0  0  0  0  0  0  0  0
  128.7004  135.1844  160.4796 H   0  0  0  0  0  0  0  0  0  0  0  0
  129.2655  137.2631  160.5065 C   0  0  0  0  0  0  0  0  0  0  0  0
  130.5043  138.0893  160.2751 C   0  0  0  0  0  0  0  0  0  0  0  0
  131.3467  138.3825  161.3311 C   0  0  0  0  0  0  0  0  0  0  0  0
  132.4858  139.1364  161.1180 C   0  0  0  0  0  0  0  0  0  0  0  0
  132.7769  139.6056  159.8508 C   0  0  0  0  0  0  0  0  0  0  0  0
  131.9317  139.3168  158.7957 C   0  0  0  0  0  0  0  0  0  0  0  0
  130.7955  138.5586  159.0079 C   0  0  0  0  0  0  0  0  0  0  0  0
  130.6639  135.3728  161.2942 C   0  0  0  0  0  0  0  0  0  0  0  0
  132.0146  135.4565  161.0033 C   0  0  0  0  0  0  0  0  0  0  0  0
  132.8263  135.0548  161.9825 C   0  0  0  0  0  0  0  0  0  0  0  0
  131.8708  134.5347  163.3647 S   0  0  0  0  0  0  0  0  0  0  0  0
  130.3788  134.9080  162.5114 C   0  0  0  0  0  0  0  0  0  0  0  0
  130.4594  133.9756  157.1918 N   0  0  0  0  0  0  0  0  0  0  0  0
  130.8315  134.5922  156.5420 H   0  0  0  0  0  0  0  0  0  0  0  0
  130.5526  132.5176  154.5237 C   0  0  0  0  0  0  0  0  0  0  0  0
  130.8611  131.8086  153.3806 C   0  0  0  0  0  0  0  0  0  0  0  0
  130.5293  128.5128  150.7462 H   0  0  0  0  0  0  0  0  0  0  0  0
  129.8618  128.3906  152.3918 H   0  0  0  0  0  0  0  0  0  0  0  0
  129.5621  129.8486  151.4159 H   0  0  0  0  0  0  0  0  0  0  0  0
  132.2820  128.9274  152.4504 H   0  0  0  0  0  0  0  0  0  0  0  0
  131.9823  130.3855  151.4745 H   0  0  0  0  0  0  0  0  0  0  0  0
  131.5483  128.8031  154.7571 H   0  0  0  0  0  0  0  0  0  0  0  0
  131.0123  130.0532  156.8071 H   0  0  0  0  0  0  0  0  0  0  0  0
  129.4785  131.0967  158.3089 H   0  0  0  0  0  0  0  0  0  0  0  0
  130.4206  136.3107  158.4282 H   0  0  0  0  0  0  0  0  0  0  0  0
  128.4935  137.5591  159.7962 H   0  0  0  0  0  0  0  0  0  0  0  0
  128.9056  137.4247  161.5226 H   0  0  0  0  0  0  0  0  0  0  0  0
  131.1170  138.0197  162.3221 H   0  0  0  0  0  0  0  0  0  0  0  0
  133.1458  139.3624  161.9424 H   0  0  0  0  0  0  0  0  0  0  0  0
  133.6644  140.1984  159.6851 H   0  0  0  0  0  0  0  0  0  0  0  0
  132.1589  139.6837  157.8057 H   0  0  0  0  0  0  0  0  0  0  0  0
  130.1350  138.3332  158.1835 H   0  0  0  0  0  0  0  0  0  0  0  0
  132.3833  135.8193  160.0553 H   0  0  0  0  0  0  0  0  0  0  0  0
  133.9053  135.0490  161.9340 H   0  0  0  0  0  0  0  0  0  0  0  0
  129.3838  134.7786  162.9113 H   0  0  0  0  0  0  0  0  0  0  0  0
  130.2707  133.5581  154.4556 H   0  0  0  0  0  0  0  0  0  0  0  0
  130.8204  132.2950  152.4173 H   0  0  0  0  0  0  0  0  0  0  0  0
  1  2  1  0
  1 31  1  0
  1 32  1  0
  1 33  1  0
  2  3  1  0
  2 34  1  0
  2 35  1  0
  3 30  2  0
  3  4  1  0
  4  5  2  0
  4 36  1  0
  5  6  1  0
  5 37  1  0
  6  7  1  0
  6 29  2  0
  7 27  1  0
  7  8  2  0
  8  9  1  0
  8 38  1  0
  9 10  1  0
  9 11  1  0
 11 12  1  0
 11 27  2  0
 12 13  1  0
 12 39  1  0
 13 14  1  1
 13 15  1  0
 13 22  1  0
 15 16  1  0
 15 40  1  0
 15 41  1  0
 16 21  1  0
 16 17  2  0
 17 18  1  0
 17 42  1  0
 18 19  2  0
 18 43  1  0
 19 20  1  0
 19 44  1  0
 20 21  2  0
 20 45  1  0
 21 46  1  0
 22 26  2  0
 22 23  1  0
 23 24  2  0
 23 47  1  0
 24 25  1  0
 24 48  1  0
 25 26  1  0
 26 49  1  0
 27 28  1  0
 29 30  1  0
 29 50  1  0
 30 51  1  0
M  CHG  1  27   1
M  END
>  <DOCK_score>  (1) 
-58.641602

>  <SMILES>  (1) 
CCc1ccc(-c2c[nH]c(N[C@H](Cc3ccccc3)c3ccsc3)[nH+]2)cc1

$$$$
