BrC=Cc1c[nH]c(Nc2ccc(Nc3ccccc3)cc2)[nH+]1
     RDKit          3D

 38 40  0  0  1  0  0  0  0  0999 V2000
  131.0906  131.3591  153.0808 Br  0  0  0  0  0  0  0  0  0  0  0  0
  130.7332  132.3307  154.6633 C   0  0  0  0  0  0  0  0  0  0  0  0
  130.0699  131.7562  155.6591 C   0  0  0  0  0  0  0  0  0  0  0  0
  129.7906  132.5153  156.8956 C   0  0  0  0  0  0  0  0  0  0  0  0
  129.1212  132.0535  157.9839 C   0  0  0  0  0  0  0  0  0  0  0  0
  129.0895  133.0792  158.8965 N   0  0  0  0  0  0  0  0  0  0  0  0
  128.6793  133.0538  159.7752 H   0  0  0  0  0  0  0  0  0  0  0  0
  129.7399  134.1384  158.3410 C   0  0  0  0  0  0  0  0  0  0  0  0
  129.9286  135.3728  158.9397 N   0  0  0  0  0  0  0  0  0  0  0  0
  128.9873  135.8576  159.8562 C   0  0  0  0  0  0  0  0  0  0  0  0
  129.3908  136.6941  160.8890 C   0  0  0  0  0  0  0  0  0  0  0  0
  128.4619  137.1770  161.7889 C   0  0  0  0  0  0  0  0  0  0  0  0
  127.1248  136.8220  161.6649 C   0  0  0  0  0  0  0  0  0  0  0  0
  126.1832  137.3114  162.5775 N   0  0  0  0  0  0  0  0  0  0  0  0
  126.5655  137.5957  163.8906 C   0  0  0  0  0  0  0  0  0  0  0  0
  126.4348  138.8858  164.3898 C   0  0  0  0  0  0  0  0  0  0  0  0
  126.8091  139.1624  165.6900 C   0  0  0  0  0  0  0  0  0  0  0  0
  127.3231  138.1595  166.4916 C   0  0  0  0  0  0  0  0  0  0  0  0
  127.4594  136.8756  165.9962 C   0  0  0  0  0  0  0  0  0  0  0  0
  127.0825  136.5907  164.6985 C   0  0  0  0  0  0  0  0  0  0  0  0
  126.7224  135.9810  160.6353 C   0  0  0  0  0  0  0  0  0  0  0  0
  127.6513  135.4981  159.7355 C   0  0  0  0  0  0  0  0  0  0  0  0
  130.1530  133.7998  157.1440 N   0  0  0  0  0  0  0  0  0  0  0  0
  130.6416  134.3745  156.5342 H   0  0  0  0  0  0  0  0  0  0  0  0
  131.0689  133.3530  154.7568 H   0  0  0  0  0  0  0  0  0  0  0  0
  129.7343  130.7340  155.5657 H   0  0  0  0  0  0  0  0  0  0  0  0
  128.6961  131.0684  158.1078 H   0  0  0  0  0  0  0  0  0  0  0  0
  130.7128  135.9014  158.7244 H   0  0  0  0  0  0  0  0  0  0  0  0
  130.4305  136.9701  160.9855 H   0  0  0  0  0  0  0  0  0  0  0  0
  128.7748  137.8313  162.5892 H   0  0  0  0  0  0  0  0  0  0  0  0
  125.2652  137.4528  162.2982 H   0  0  0  0  0  0  0  0  0  0  0  0
  126.0373  139.6704  163.7630 H   0  0  0  0  0  0  0  0  0  0  0  0
  126.7046  140.1642  166.0798 H   0  0  0  0  0  0  0  0  0  0  0  0
  127.6189  138.3795  167.5066 H   0  0  0  0  0  0  0  0  0  0  0  0
  127.8614  136.0948  166.6248 H   0  0  0  0  0  0  0  0  0  0  0  0
  127.1900  135.5880  164.3121 H   0  0  0  0  0  0  0  0  0  0  0  0
  125.6826  135.7051  160.5386 H   0  0  0  0  0  0  0  0  0  0  0  0
  127.3384  134.8441  158.9349 H   0  0  0  0  0  0  0  0  0  0  0  0
  1  2  1  0
  2  3  2  0
  2 25  1  0
  3  4  1  0
  3 26  1  0
  4 23  1  0
  4  5  2  0
  5  6  1  0
  5 27  1  0
  6  7  1  0
  6  8  1  0
  8  9  1  0
  8 23  2  0
  9 10  1  0
  9 28  1  0
 10 22  1  0
 10 11  2  0
 11 12  1  0
 11 29  1  0
 12 13  2  0
 12 30  1  0
 13 14  1  0
 13 21  1  0
 14 15  1  0
 14 31  1  0
 15 20  1  0
 15 16  2  0
 16 17  1  0
 16 32  1  0
 17 18  2  0
 17 33  1  0
 18 19  1  0
 18 34  1  0
 19 20  2  0
 19 35  1  0
 20 36  1  0
 21 22  2  0
 21 37  1  0
 22 38  1  0
 23 24  1  0
M  CHG  1  23   1
M  END
>  <DOCK_score>  (1) 
-46.119648

>  <SMILES>  (1) 
BrC=Cc1c[nH]c(Nc2ccc(Nc3ccccc3)cc2)[nH+]1

$$$$
