NC(=O)[C@@H](c1ccccc1)[NH+]1CCN(c2cccc(Nc3cccc4ccccc34)c2CCl)CC1
     RDKit          3D

 65 69  0  0  1  0  0  0  0  0999 V2000
  129.3575  135.8195  157.5203 N   0  0  0  0  0  0  0  0  0  0  0  0
  128.9236  134.6579  158.0483 C   0  0  0  0  0  0  0  0  0  0  0  0
  127.7470  134.3689  157.9933 O   0  0  0  0  0  0  0  0  0  0  0  0
  129.9003  133.7181  158.7070 C   0  0  1  0  0  0  0  0  0  0  0  0
  129.3934  133.1604  159.4945 H   0  0  0  0  0  0  0  0  0  0  0  0
  130.4433  132.7573  157.6807 C   0  0  0  0  0  0  0  0  0  0  0  0
  130.8317  131.4864  158.0611 C   0  0  0  0  0  0  0  0  0  0  0  0
  131.3259  130.6037  157.1190 C   0  0  0  0  0  0  0  0  0  0  0  0
  131.4395  130.9949  155.7980 C   0  0  0  0  0  0  0  0  0  0  0  0
  131.0560  132.2677  155.4187 C   0  0  0  0  0  0  0  0  0  0  0  0
  130.5581  133.1490  156.3600 C   0  0  0  0  0  0  0  0  0  0  0  0
  131.0066  134.4903  159.2883 N   0  0  0  0  0  0  0  0  0  0  0  0
  131.4758  135.0064  158.5594 H   0  0  0  0  0  0  0  0  0  0  0  0
  130.4771  135.4271  160.2882 C   0  0  0  0  0  0  0  0  0  0  0  0
  131.6269  136.2448  160.8806 C   0  0  0  0  0  0  0  0  0  0  0  0
  132.6007  135.3364  161.5024 N   0  0  0  0  0  0  0  0  0  0  0  0
  133.6398  136.0515  162.1023 C   0  0  0  0  0  0  0  0  0  0  0  0
  134.4403  136.8904  161.3358 C   0  0  0  0  0  0  0  0  0  0  0  0
  135.4681  137.5983  161.9284 C   0  0  0  0  0  0  0  0  0  0  0  0
  135.7041  137.4750  163.2841 C   0  0  0  0  0  0  0  0  0  0  0  0
  134.9080  136.6375  164.0563 C   0  0  0  0  0  0  0  0  0  0  0  0
  135.1478  136.5128  165.4268 N   0  0  0  0  0  0  0  0  0  0  0  0
  136.4402  136.6658  165.9247 C   0  0  0  0  0  0  0  0  0  0  0  0
  137.2775  135.5755  166.0337 C   0  0  0  0  0  0  0  0  0  0  0  0
  138.5694  135.7177  166.5304 C   0  0  0  0  0  0  0  0  0  0  0  0
  139.0424  136.9332  166.9221 C   0  0  0  0  0  0  0  0  0  0  0  0
  138.2215  138.0697  166.8270 C   0  0  0  0  0  0  0  0  0  0  0  0
  138.6833  139.3368  167.2234 C   0  0  0  0  0  0  0  0  0  0  0  0
  137.8616  140.4167  167.1173 C   0  0  0  0  0  0  0  0  0  0  0  0
  136.5661  140.2860  166.6211 C   0  0  0  0  0  0  0  0  0  0  0  0
  136.0856  139.0742  166.2279 C   0  0  0  0  0  0  0  0  0  0  0  0
  136.9043  137.9382  166.3223 C   0  0  0  0  0  0  0  0  0  0  0  0
  133.8777  135.9209  163.4630 C   0  0  0  0  0  0  0  0  0  0  0  0
  133.0158  135.0075  164.2961 C   0  0  0  0  0  0  0  0  0  0  0  0
  131.6066  135.9310  164.9382 Cl  0  0  0  0  0  0  0  0  0  0  0  0
  133.1211  134.3765  160.5188 C   0  0  0  0  0  0  0  0  0  0  0  0
  131.9590  133.5740  159.9294 C   0  0  0  0  0  0  0  0  0  0  0  0
  130.2986  136.0507  157.5643 H   0  0  0  0  0  0  0  0  0  0  0  0
  128.7288  136.4244  157.0963 H   0  0  0  0  0  0  0  0  0  0  0  0
  130.7461  131.1819  159.0938 H   0  0  0  0  0  0  0  0  0  0  0  0
  131.6258  129.6096  157.4154 H   0  0  0  0  0  0  0  0  0  0  0  0
  131.8282  130.3063  155.0624 H   0  0  0  0  0  0  0  0  0  0  0  0
  131.1451  132.5733  154.3866 H   0  0  0  0  0  0  0  0  0  0  0  0
  130.2585  134.1434  156.0636 H   0  0  0  0  0  0  0  0  0  0  0  0
  129.9814  134.8689  161.0824 H   0  0  0  0  0  0  0  0  0  0  0  0
  129.7607  136.0979  159.8138 H   0  0  0  0  0  0  0  0  0  0  0  0
  131.2362  136.9296  161.6332 H   0  0  0  0  0  0  0  0  0  0  0  0
  132.1143  136.8141  160.0890 H   0  0  0  0  0  0  0  0  0  0  0  0
  134.2587  136.9888  160.2758 H   0  0  0  0  0  0  0  0  0  0  0  0
  136.0883  138.2497  161.3306 H   0  0  0  0  0  0  0  0  0  0  0  0
  136.5084  138.0298  163.7443 H   0  0  0  0  0  0  0  0  0  0  0  0
  134.4146  136.3196  166.0318 H   0  0  0  0  0  0  0  0  0  0  0  0
  136.9265  134.6003  165.7302 H   0  0  0  0  0  0  0  0  0  0  0  0
  139.2074  134.8496  166.6070 H   0  0  0  0  0  0  0  0  0  0  0  0
  140.0479  137.0236  167.3058 H   0  0  0  0  0  0  0  0  0  0  0  0
  139.6851  139.4530  167.6098 H   0  0  0  0  0  0  0  0  0  0  0  0
  138.2189  141.3891  167.4225 H   0  0  0  0  0  0  0  0  0  0  0  0
  135.9342  141.1587  166.5470 H   0  0  0  0  0  0  0  0  0  0  0  0
  135.0779  138.9869  165.8493 H   0  0  0  0  0  0  0  0  0  0  0  0
  132.6590  134.1823  163.6796 H   0  0  0  0  0  0  0  0  0  0  0  0
  133.6010  134.6135  165.1269 H   0  0  0  0  0  0  0  0  0  0  0  0
  133.6331  134.9145  159.7211 H   0  0  0  0  0  0  0  0  0  0  0  0
  133.8205  133.6981  161.0076 H   0  0  0  0  0  0  0  0  0  0  0  0
  131.4557  133.0254  160.7255 H   0  0  0  0  0  0  0  0  0  0  0  0
  132.3413  132.8712  159.1892 H   0  0  0  0  0  0  0  0  0  0  0  0
  1  2  1  0
  1 38  1  0
  1 39  1  0
  2  3  2  0
  2  4  1  0
  4  5  1  1
  4  6  1  0
  4 12  1  0
  6 11  1  0
  6  7  2  0
  7  8  1  0
  7 40  1  0
  8  9  2  0
  8 41  1  0
  9 10  1  0
  9 42  1  0
 10 11  2  0
 10 43  1  0
 11 44  1  0
 12 13  1  0
 12 37  1  0
 12 14  1  0
 14 15  1  0
 14 45  1  0
 14 46  1  0
 15 16  1  0
 15 47  1  0
 15 48  1  0
 16 17  1  0
 16 36  1  0
 17 33  1  0
 17 18  2  0
 18 19  1  0
 18 49  1  0
 19 20  2  0
 19 50  1  0
 20 21  1  0
 20 51  1  0
 21 22  1  0
 21 33  2  0
 22 23  1  0
 22 52  1  0
 23 32  1  0
 23 24  2  0
 24 25  1  0
 24 53  1  0
 25 26  2  0
 25 54  1  0
 26 27  1  0
 26 55  1  0
 27 32  2  0
 27 28  1  0
 28 29  2  0
 28 56  1  0
 29 30  1  0
 29 57  1  0
 30 31  2  0
 30 58  1  0
 31 32  1  0
 31 59  1  0
 33 34  1  0
 34 35  1  0
 34 60  1  0
 34 61  1  0
 36 37  1  0
 36 62  1  0
 36 63  1  0
 37 64  1  0
 37 65  1  0
M  CHG  1  12   1
M  END
>  <DOCK_score>  (1) 
-56.005604

>  <SMILES>  (1) 
NC(=O)[C@@H](c1ccccc1)[NH+]1CCN(c2cccc(Nc3cccc4ccccc34)c2CCl)CC1

$$$$
