N#CC=COc1ccc2c(c1)OC[C@H]([NH+]=C(NC1CCCC1)N[C@H]1CCC(=O)NC1)C2
     RDKit          3D

 61 64  0  0  1  0  0  0  0  0999 V2000
  134.2229  141.6483  168.5724 N   0  0  0  0  0  0  0  0  0  0  0  0
  134.5782  141.6368  167.4935 C   0  0  0  0  0  0  0  0  0  0  0  0
  135.0261  141.6224  166.1333 C   0  0  0  0  0  0  0  0  0  0  0  0
  134.4329  140.8137  165.2393 C   0  0  0  0  0  0  0  0  0  0  0  0
  134.8587  140.7960  163.9584 O   0  0  0  0  0  0  0  0  0  0  0  0
  134.2298  139.9631  163.0886 C   0  0  0  0  0  0  0  0  0  0  0  0
  133.5947  140.4788  161.9670 C   0  0  0  0  0  0  0  0  0  0  0  0
  132.9625  139.6291  161.0823 C   0  0  0  0  0  0  0  0  0  0  0  0
  132.9482  138.2626  161.3115 C   0  0  0  0  0  0  0  0  0  0  0  0
  133.5726  137.7438  162.4328 C   0  0  0  0  0  0  0  0  0  0  0  0
  134.2157  138.5979  163.3216 C   0  0  0  0  0  0  0  0  0  0  0  0
  133.5724  136.4119  162.7004 O   0  0  0  0  0  0  0  0  0  0  0  0
  133.2500  135.5168  161.6353 C   0  0  0  0  0  0  0  0  0  0  0  0
  131.9624  136.0091  160.9622 C   0  0  2  0  0  0  0  0  0  0  0  0
  131.1736  136.1119  161.7074 H   0  0  0  0  0  0  0  0  0  0  0  0
  131.5472  135.0539  159.9321 N   0  0  0  0  0  0  0  0  0  0  0  0
  132.2127  134.5274  159.4621 H   0  0  0  0  0  0  0  0  0  0  0  0
  130.2832  134.9111  159.6472 C   0  0  0  0  0  0  0  0  0  0  0  0
  129.8934  134.0146  158.6807 N   0  0  0  0  0  0  0  0  0  0  0  0
  130.8986  133.2197  157.9707 C   0  0  0  0  0  0  0  0  0  0  0  0
  130.2085  132.2460  156.9932 C   0  0  0  0  0  0  0  0  0  0  0  0
  131.0723  130.9615  157.0644 C   0  0  0  0  0  0  0  0  0  0  0  0
  131.4507  130.8859  158.5645 C   0  0  0  0  0  0  0  0  0  0  0  0
  131.6886  132.3554  158.9692 C   0  0  0  0  0  0  0  0  0  0  0  0
  129.3400  135.6570  160.3136 N   0  0  0  0  0  0  0  0  0  0  0  0
  127.9944  135.1173  160.5243 C   0  0  1  0  0  0  0  0  0  0  0  0
  127.5295  134.9075  159.5610 H   0  0  0  0  0  0  0  0  0  0  0  0
  128.0809  133.8256  161.3461 C   0  0  0  0  0  0  0  0  0  0  0  0
  126.6898  133.1892  161.3951 C   0  0  0  0  0  0  0  0  0  0  0  0
  125.6692  134.2208  161.7820 C   0  0  0  0  0  0  0  0  0  0  0  0
  124.5897  133.8387  162.1812 O   0  0  0  0  0  0  0  0  0  0  0  0
  125.8868  135.5345  161.7105 N   0  0  0  0  0  0  0  0  0  0  0  0
  127.1482  136.1341  161.2916 C   0  0  0  0  0  0  0  0  0  0  0  0
  132.2457  137.3694  160.3200 C   0  0  0  0  0  0  0  0  0  0  0  0
  135.8437  142.2580  165.8274 H   0  0  0  0  0  0  0  0  0  0  0  0
  133.6152  140.1779  165.5454 H   0  0  0  0  0  0  0  0  0  0  0  0
  133.5991  141.5433  161.7848 H   0  0  0  0  0  0  0  0  0  0  0  0
  132.4723  140.0320  160.2083 H   0  0  0  0  0  0  0  0  0  0  0  0
  134.7061  138.1957  164.1957 H   0  0  0  0  0  0  0  0  0  0  0  0
  133.0961  134.5136  162.0325 H   0  0  0  0  0  0  0  0  0  0  0  0
  134.0621  135.5030  160.9082 H   0  0  0  0  0  0  0  0  0  0  0  0
  128.9529  133.9083  158.4686 H   0  0  0  0  0  0  0  0  0  0  0  0
  131.5775  133.8763  157.4267 H   0  0  0  0  0  0  0  0  0  0  0  0
  129.1889  132.0383  157.3178 H   0  0  0  0  0  0  0  0  0  0  0  0
  130.2123  132.6537  155.9824 H   0  0  0  0  0  0  0  0  0  0  0  0
  131.9639  131.0617  156.4456 H   0  0  0  0  0  0  0  0  0  0  0  0
  130.4940  130.0865  156.7673 H   0  0  0  0  0  0  0  0  0  0  0  0
  132.3607  130.3011  158.6993 H   0  0  0  0  0  0  0  0  0  0  0  0
  130.6336  130.4577  159.1450 H   0  0  0  0  0  0  0  0  0  0  0  0
  132.7508  132.5920  158.9090 H   0  0  0  0  0  0  0  0  0  0  0  0
  131.3241  132.5274  159.9819 H   0  0  0  0  0  0  0  0  0  0  0  0
  129.5654  136.5406  160.6443 H   0  0  0  0  0  0  0  0  0  0  0  0
  128.7830  133.1375  160.8752 H   0  0  0  0  0  0  0  0  0  0  0  0
  128.4156  134.0560  162.3577 H   0  0  0  0  0  0  0  0  0  0  0  0
  126.4417  132.7850  160.4137 H   0  0  0  0  0  0  0  0  0  0  0  0
  126.6854  132.3841  162.1299 H   0  0  0  0  0  0  0  0  0  0  0  0
  125.1591  136.1295  161.9499 H   0  0  0  0  0  0  0  0  0  0  0  0
  127.6965  136.4672  162.1728 H   0  0  0  0  0  0  0  0  0  0  0  0
  126.9471  136.9924  160.6505 H   0  0  0  0  0  0  0  0  0  0  0  0
  131.3055  137.8311  160.0186 H   0  0  0  0  0  0  0  0  0  0  0  0
  132.8790  137.2320  159.4436 H   0  0  0  0  0  0  0  0  0  0  0  0
  1  2  3  0
  2  3  1  0
  3  4  2  0
  3 35  1  0
  4  5  1  0
  4 36  1  0
  5  6  1  0
  6 11  2  0
  6  7  1  0
  7  8  2  0
  7 37  1  0
  8  9  1  0
  8 38  1  0
  9 34  1  0
  9 10  2  0
 10 11  1  0
 10 12  1  0
 11 39  1  0
 12 13  1  0
 13 14  1  0
 13 40  1  0
 13 41  1  0
 14 15  1  1
 14 16  1  0
 14 34  1  0
 16 17  1  0
 18 16  2  0
 18 19  1  0
 18 25  1  0
 19 20  1  0
 19 42  1  0
 20 24  1  0
 20 21  1  0
 20 43  1  0
 21 22  1  0
 21 44  1  0
 21 45  1  0
 22 23  1  0
 22 46  1  0
 22 47  1  0
 23 24  1  0
 23 48  1  0
 23 49  1  0
 24 50  1  0
 24 51  1  0
 25 26  1  0
 25 52  1  0
 26 27  1  6
 26 33  1  0
 26 28  1  0
 28 29  1  0
 28 53  1  0
 28 54  1  0
 29 30  1  0
 29 55  1  0
 29 56  1  0
 30 31  2  0
 30 32  1  0
 32 33  1  0
 32 57  1  0
 33 58  1  0
 33 59  1  0
 34 60  1  0
 34 61  1  0
M  CHG  1  16   1
M  END
>  <DOCK_score>  (1) 
-43.615135

>  <SMILES>  (1) 
N#CC=COc1ccc2c(c1)OC[C@H]([NH+]=C(NC1CCCC1)N[C@H]1CCC(=O)NC1)C2

$$$$
