Cn1nccc1C[C@H](CCc1ccc(N)cc1)Nc1[nH]cc(-c2ccc(N)cc2)[nH+]1
     RDKit          3D

 58 61  0  0  1  0  0  0  0  0999 V2000
  125.6701  134.6754  160.9731 C   0  0  0  0  0  0  0  0  0  0  0  0
  126.1161  135.2350  159.6947 N   0  0  0  0  0  0  0  0  0  0  0  0
  125.4019  135.2087  158.4897 N   0  0  0  0  0  0  0  0  0  0  0  0
  126.1244  135.8006  157.5736 C   0  0  0  0  0  0  0  0  0  0  0  0
  127.3179  136.2266  158.1657 C   0  0  0  0  0  0  0  0  0  0  0  0
  127.2859  135.8691  159.4704 C   0  0  0  0  0  0  0  0  0  0  0  0
  128.3661  136.1273  160.4890 C   0  0  0  0  0  0  0  0  0  0  0  0
  129.3499  134.9555  160.4973 C   0  0  2  0  0  0  0  0  0  0  0  0
  128.8200  134.0382  160.7541 H   0  0  0  0  0  0  0  0  0  0  0  0
  130.4465  135.2175  161.5315 C   0  0  0  0  0  0  0  0  0  0  0  0
  131.6644  134.3471  161.2151 C   0  0  0  0  0  0  0  0  0  0  0  0
  132.7444  134.6051  162.2337 C   0  0  0  0  0  0  0  0  0  0  0  0
  132.4038  134.9763  163.5216 C   0  0  0  0  0  0  0  0  0  0  0  0
  133.3911  135.2076  164.4592 C   0  0  0  0  0  0  0  0  0  0  0  0
  134.7276  135.0726  164.1059 C   0  0  0  0  0  0  0  0  0  0  0  0
  135.7285  135.3053  165.0519 N   0  0  0  0  0  0  0  0  0  0  0  0
  135.0666  134.7051  162.8099 C   0  0  0  0  0  0  0  0  0  0  0  0
  134.0743  134.4754  161.8772 C   0  0  0  0  0  0  0  0  0  0  0  0
  129.9537  134.8154  159.1700 N   0  0  0  0  0  0  0  0  0  0  0  0
  129.7958  133.6386  158.4582 C   0  0  0  0  0  0  0  0  0  0  0  0
  129.1011  132.5461  158.8772 N   0  0  0  0  0  0  0  0  0  0  0  0
  128.6318  132.4523  159.7209 H   0  0  0  0  0  0  0  0  0  0  0  0
  129.1877  131.5996  157.8839 C   0  0  0  0  0  0  0  0  0  0  0  0
  129.9320  132.1412  156.8884 C   0  0  0  0  0  0  0  0  0  0  0  0
  130.2913  131.4816  155.6091 C   0  0  0  0  0  0  0  0  0  0  0  0
  129.8914  132.0435  154.3976 C   0  0  0  0  0  0  0  0  0  0  0  0
  130.2310  131.4315  153.2097 C   0  0  0  0  0  0  0  0  0  0  0  0
  130.9613  130.2496  153.2195 C   0  0  0  0  0  0  0  0  0  0  0  0
  131.2992  129.6284  152.0147 N   0  0  0  0  0  0  0  0  0  0  0  0
  131.3567  129.6843  154.4265 C   0  0  0  0  0  0  0  0  0  0  0  0
  131.0243  130.2959  155.6169 C   0  0  0  0  0  0  0  0  0  0  0  0
  130.2859  133.3950  157.2672 N   0  0  0  0  0  0  0  0  0  0  0  0
  130.8188  134.0118  156.7414 H   0  0  0  0  0  0  0  0  0  0  0  0
  125.1191  135.4339  161.5292 H   0  0  0  0  0  0  0  0  0  0  0  0
  125.0228  133.8182  160.7885 H   0  0  0  0  0  0  0  0  0  0  0  0
  126.5369  134.3580  161.5528 H   0  0  0  0  0  0  0  0  0  0  0  0
  125.8475  135.9363  156.5384 H   0  0  0  0  0  0  0  0  0  0  0  0
  128.1228  136.7482  157.6694 H   0  0  0  0  0  0  0  0  0  0  0  0
  127.9170  136.2315  161.4766 H   0  0  0  0  0  0  0  0  0  0  0  0
  128.8959  137.0446  160.2323 H   0  0  0  0  0  0  0  0  0  0  0  0
  130.0738  134.9730  162.5262 H   0  0  0  0  0  0  0  0  0  0  0  0
  130.7329  136.2686  161.4990 H   0  0  0  0  0  0  0  0  0  0  0  0
  132.0371  134.5915  160.2204 H   0  0  0  0  0  0  0  0  0  0  0  0
  131.3779  133.2958  161.2476 H   0  0  0  0  0  0  0  0  0  0  0  0
  131.3644  135.0811  163.7956 H   0  0  0  0  0  0  0  0  0  0  0  0
  133.1241  135.4928  165.4662 H   0  0  0  0  0  0  0  0  0  0  0  0
  135.4908  135.5616  165.9566 H   0  0  0  0  0  0  0  0  0  0  0  0
  136.6617  135.2107  164.8039 H   0  0  0  0  0  0  0  0  0  0  0  0
  136.1048  134.5989  162.5320 H   0  0  0  0  0  0  0  0  0  0  0  0
  134.3370  134.1893  160.8694 H   0  0  0  0  0  0  0  0  0  0  0  0
  130.4643  135.5474  158.7898 H   0  0  0  0  0  0  0  0  0  0  0  0
  128.7473  130.6135  157.8945 H   0  0  0  0  0  0  0  0  0  0  0  0
  129.3197  132.9597  154.3895 H   0  0  0  0  0  0  0  0  0  0  0  0
  129.9252  131.8687  152.2706 H   0  0  0  0  0  0  0  0  0  0  0  0
  131.8095  128.8027  152.0212 H   0  0  0  0  0  0  0  0  0  0  0  0
  131.0238  130.0213  151.1723 H   0  0  0  0  0  0  0  0  0  0  0  0
  131.9242  128.7655  154.4321 H   0  0  0  0  0  0  0  0  0  0  0  0
  131.3319  129.8569  156.5543 H   0  0  0  0  0  0  0  0  0  0  0  0
  1  2  1  0
  1 34  1  0
  1 35  1  0
  1 36  1  0
  2  6  1  0
  2  3  1  0
  3  4  2  0
  4  5  1  0
  4 37  1  0
  5  6  2  0
  5 38  1  0
  6  7  1  0
  7  8  1  0
  7 39  1  0
  7 40  1  0
  8  9  1  1
  8 10  1  0
  8 19  1  0
 10 11  1  0
 10 41  1  0
 10 42  1  0
 11 12  1  0
 11 43  1  0
 11 44  1  0
 12 18  1  0
 12 13  2  0
 13 14  1  0
 13 45  1  0
 14 15  2  0
 14 46  1  0
 15 16  1  0
 15 17  1  0
 16 47  1  0
 16 48  1  0
 17 18  2  0
 17 49  1  0
 18 50  1  0
 19 51  1  0
 20 19  1  0
 20 32  2  0
 20 21  1  0
 21 22  1  0
 21 23  1  0
 23 24  2  0
 23 52  1  0
 24 25  1  0
 24 32  1  0
 25 31  1  0
 25 26  2  0
 26 27  1  0
 26 53  1  0
 27 28  2  0
 27 54  1  0
 28 29  1  0
 28 30  1  0
 29 55  1  0
 29 56  1  0
 30 31  2  0
 30 57  1  0
 31 58  1  0
 32 33  1  0
M  CHG  1  32   1
M  END
>  <DOCK_score>  (1) 
-56.373657

>  <SMILES>  (1) 
Cn1nccc1C[C@H](CCc1ccc(N)cc1)Nc1[nH]cc(-c2ccc(N)cc2)[nH+]1

$$$$
