O[C@@H]1C=C[C@@H]([NH+]=C(NC2CC=CC2)NC2Cc3ccccc3C2)[C@@H]1Cl
     RDKit          3D

 50 53  0  0  1  0  0  0  0  0999 V2000
  125.0804  135.3301  161.9547 O   0  0  0  0  0  0  0  0  0  0  0  0
  126.2712  135.3732  161.1660 C   0  0  2  0  0  0  0  0  0  0  0  0
  126.8350  136.2812  161.3804 H   0  0  0  0  0  0  0  0  0  0  0  0
  125.9317  135.2964  159.6956 C   0  0  0  0  0  0  0  0  0  0  0  0
  126.7197  134.4618  159.0743 C   0  0  0  0  0  0  0  0  0  0  0  0
  127.7170  133.8422  160.0272 C   0  0  1  0  0  0  0  0  0  0  0  0
  127.7915  132.7685  159.8548 H   0  0  0  0  0  0  0  0  0  0  0  0
  129.0290  134.4766  159.8770 N   0  0  0  0  0  0  0  0  0  0  0  0
  129.2563  135.2530  160.4120 H   0  0  0  0  0  0  0  0  0  0  0  0
  129.8907  133.9976  159.0243 C   0  0  0  0  0  0  0  0  0  0  0  0
  129.4517  133.3668  157.8843 N   0  0  0  0  0  0  0  0  0  0  0  0
  130.4202  132.8285  156.9260 C   0  0  0  0  0  0  0  0  0  0  0  0
  129.7863  132.6726  155.5243 C   0  0  0  0  0  0  0  0  0  0  0  0
  130.3814  131.3978  154.9731 C   0  0  0  0  0  0  0  0  0  0  0  0
  130.9231  130.6836  155.9218 C   0  0  0  0  0  0  0  0  0  0  0  0
  130.7796  131.3630  157.2638 C   0  0  0  0  0  0  0  0  0  0  0  0
  131.2384  134.1232  159.2651 N   0  0  0  0  0  0  0  0  0  0  0  0
  131.7363  134.1597  160.6423 C   0  0  0  0  0  0  0  0  0  0  0  0
  131.2664  135.4419  161.3618 C   0  0  0  0  0  0  0  0  0  0  0  0
  132.4193  135.8290  162.2682 C   0  0  0  0  0  0  0  0  0  0  0  0
  132.4549  136.6843  163.3569 C   0  0  0  0  0  0  0  0  0  0  0  0
  133.6355  136.8846  164.0450 C   0  0  0  0  0  0  0  0  0  0  0  0
  134.7860  136.2296  163.6465 C   0  0  0  0  0  0  0  0  0  0  0  0
  134.7523  135.3763  162.5611 C   0  0  0  0  0  0  0  0  0  0  0  0
  133.5695  135.1741  161.8698 C   0  0  0  0  0  0  0  0  0  0  0  0
  133.2727  134.3047  160.6667 C   0  0  0  0  0  0  0  0  0  0  0  0
  127.1408  134.1231  161.4344 C   0  0  2  0  0  0  0  0  0  0  0  0
  127.9363  134.3452  162.1458 H   0  0  0  0  0  0  0  0  0  0  0  0
  126.1314  132.7435  162.0077 Cl  0  0  0  0  0  0  0  0  0  0  0  0
  124.4961  136.0900  161.8270 H   0  0  0  0  0  0  0  0  0  0  0  0
  125.1407  135.8582  159.2211 H   0  0  0  0  0  0  0  0  0  0  0  0
  126.6668  134.2426  158.0181 H   0  0  0  0  0  0  0  0  0  0  0  0
  128.5009  133.2782  157.7146 H   0  0  0  0  0  0  0  0  0  0  0  0
  131.3141  133.4511  156.8848 H   0  0  0  0  0  0  0  0  0  0  0  0
  128.7031  132.5820  155.6053 H   0  0  0  0  0  0  0  0  0  0  0  0
  130.0509  133.5198  154.8914 H   0  0  0  0  0  0  0  0  0  0  0  0
  130.3614  131.1148  153.9310 H   0  0  0  0  0  0  0  0  0  0  0  0
  131.4097  129.7317  155.7679 H   0  0  0  0  0  0  0  0  0  0  0  0
  131.7198  131.3197  157.8138 H   0  0  0  0  0  0  0  0  0  0  0  0
  129.9795  130.8991  157.8407 H   0  0  0  0  0  0  0  0  0  0  0  0
  131.8597  134.1878  158.5229 H   0  0  0  0  0  0  0  0  0  0  0  0
  131.4222  133.2709  161.1898 H   0  0  0  0  0  0  0  0  0  0  0  0
  131.0737  136.2331  160.6374 H   0  0  0  0  0  0  0  0  0  0  0  0
  130.3707  135.2393  161.9491 H   0  0  0  0  0  0  0  0  0  0  0  0
  131.5566  137.1963  163.6688 H   0  0  0  0  0  0  0  0  0  0  0  0
  133.6600  137.5525  164.8933 H   0  0  0  0  0  0  0  0  0  0  0  0
  135.7101  136.3853  164.1833 H   0  0  0  0  0  0  0  0  0  0  0  0
  135.6517  134.8653  162.2502 H   0  0  0  0  0  0  0  0  0  0  0  0
  133.7430  133.3280  160.7807 H   0  0  0  0  0  0  0  0  0  0  0  0
  133.6214  134.7892  159.7548 H   0  0  0  0  0  0  0  0  0  0  0  0
  1  2  1  0
  1 30  1  0
  2  3  1  6
  2 27  1  0
  2  4  1  0
  4  5  2  0
  4 31  1  0
  5  6  1  0
  5 32  1  0
  6  7  1  6
  6  8  1  0
  6 27  1  0
  8  9  1  0
 10  8  2  0
 10 11  1  0
 10 17  1  0
 11 12  1  0
 11 33  1  0
 12 16  1  0
 12 13  1  0
 12 34  1  0
 13 14  1  0
 13 35  1  0
 13 36  1  0
 14 15  2  0
 14 37  1  0
 15 16  1  0
 15 38  1  0
 16 39  1  0
 16 40  1  0
 17 18  1  0
 17 41  1  0
 18 26  1  0
 18 19  1  0
 18 42  1  0
 19 20  1  0
 19 43  1  0
 19 44  1  0
 20 25  2  0
 20 21  1  0
 21 22  2  0
 21 45  1  0
 22 23  1  0
 22 46  1  0
 23 24  2  0
 23 47  1  0
 24 25  1  0
 24 48  1  0
 25 26  1  0
 26 49  1  0
 26 50  1  0
 27 28  1  1
 27 29  1  0
M  CHG  1   8   1
M  END
>  <DOCK_score>  (1) 
-45.306057

>  <SMILES>  (1) 
O[C@@H]1C=C[C@@H]([NH+]=C(NC2CC=CC2)NC2Cc3ccccc3C2)[C@@H]1Cl

$$$$
