Fc1ccc(F)c([C@H]([NH2+]C=CCCSCc2cccc3cccnc23)c2ccccc2Cl)c1
     RDKit          3D

 57 60  0  0  1  0  0  0  0  0999 V2000
  125.3009  133.1188  159.5971 F   0  0  0  0  0  0  0  0  0  0  0  0
  126.3769  133.8048  159.1533 C   0  0  0  0  0  0  0  0  0  0  0  0
  126.2209  135.0818  158.6411 C   0  0  0  0  0  0  0  0  0  0  0  0
  127.3212  135.7835  158.1877 C   0  0  0  0  0  0  0  0  0  0  0  0
  128.5802  135.2098  158.2453 C   0  0  0  0  0  0  0  0  0  0  0  0
  129.6562  135.8959  157.8020 F   0  0  0  0  0  0  0  0  0  0  0  0
  128.7354  133.9308  158.7520 C   0  0  0  0  0  0  0  0  0  0  0  0
  130.1046  133.3039  158.8085 C   0  0  2  0  0  0  0  0  0  0  0  0
  130.1531  132.6119  159.6493 H   0  0  0  0  0  0  0  0  0  0  0  0
  131.1173  134.3541  158.9797 N   0  0  0  0  0  0  0  0  0  0  0  0
  132.0342  133.9345  159.0176 H   0  0  0  0  0  0  0  0  0  0  0  0
  131.0726  134.9946  158.2013 H   0  0  0  0  0  0  0  0  0  0  0  0
  130.8729  135.0478  160.1685 C   0  0  0  0  0  0  0  0  0  0  0  0
  130.8818  134.4100  161.3128 C   0  0  0  0  0  0  0  0  0  0  0  0
  130.6183  135.1577  162.5943 C   0  0  0  0  0  0  0  0  0  0  0  0
  131.8301  135.0273  163.5193 C   0  0  0  0  0  0  0  0  0  0  0  0
  133.2922  135.7240  162.7025 S   0  0  0  0  0  0  0  0  0  0  0  0
  133.0930  137.5083  162.9615 C   0  0  0  0  0  0  0  0  0  0  0  0
  133.9279  138.2583  161.9559 C   0  0  0  0  0  0  0  0  0  0  0  0
  135.2165  138.5862  162.2465 C   0  0  0  0  0  0  0  0  0  0  0  0
  136.0060  139.2790  161.3313 C   0  0  0  0  0  0  0  0  0  0  0  0
  135.5091  139.6478  160.1184 C   0  0  0  0  0  0  0  0  0  0  0  0
  134.1837  139.3266  159.7848 C   0  0  0  0  0  0  0  0  0  0  0  0
  133.6320  139.6895  158.5415 C   0  0  0  0  0  0  0  0  0  0  0  0
  132.3418  139.3270  158.2786 C   0  0  0  0  0  0  0  0  0  0  0  0
  131.6052  138.6339  159.2371 C   0  0  0  0  0  0  0  0  0  0  0  0
  132.1202  138.3026  160.3961 N   0  0  0  0  0  0  0  0  0  0  0  0
  133.3806  138.6169  160.7119 C   0  0  0  0  0  0  0  0  0  0  0  0
  130.3680  132.5563  157.5268 C   0  0  0  0  0  0  0  0  0  0  0  0
  129.7902  132.9838  156.3459 C   0  0  0  0  0  0  0  0  0  0  0  0
  130.0359  132.3013  155.1693 C   0  0  0  0  0  0  0  0  0  0  0  0
  130.8505  131.1841  155.1747 C   0  0  0  0  0  0  0  0  0  0  0  0
  131.4244  130.7528  156.3555 C   0  0  0  0  0  0  0  0  0  0  0  0
  131.1834  131.4389  157.5327 C   0  0  0  0  0  0  0  0  0  0  0  0
  131.9036  130.8973  159.0165 Cl  0  0  0  0  0  0  0  0  0  0  0  0
  127.6354  133.2312  159.2109 C   0  0  0  0  0  0  0  0  0  0  0  0
  125.2389  135.5292  158.5959 H   0  0  0  0  0  0  0  0  0  0  0  0
  127.1995  136.7794  157.7880 H   0  0  0  0  0  0  0  0  0  0  0  0
  130.6768  136.1096  160.1438 H   0  0  0  0  0  0  0  0  0  0  0  0
  131.0781  133.3482  161.3376 H   0  0  0  0  0  0  0  0  0  0  0  0
  130.4429  136.2102  162.3716 H   0  0  0  0  0  0  0  0  0  0  0  0
  129.7397  134.7390  163.0853 H   0  0  0  0  0  0  0  0  0  0  0  0
  131.6395  135.5681  164.4463 H   0  0  0  0  0  0  0  0  0  0  0  0
  132.0053  133.9747  163.7422 H   0  0  0  0  0  0  0  0  0  0  0  0
  132.0444  137.7787  162.8372 H   0  0  0  0  0  0  0  0  0  0  0  0
  133.4180  137.7677  163.9692 H   0  0  0  0  0  0  0  0  0  0  0  0
  135.6337  138.3046  163.2020 H   0  0  0  0  0  0  0  0  0  0  0  0
  137.0257  139.5264  161.5871 H   0  0  0  0  0  0  0  0  0  0  0  0
  136.1308  140.1846  159.4171 H   0  0  0  0  0  0  0  0  0  0  0  0
  134.2176  140.2267  157.8100 H   0  0  0  0  0  0  0  0  0  0  0  0
  131.8896  139.5857  157.3326 H   0  0  0  0  0  0  0  0  0  0  0  0
  130.5830  138.3619  159.0190 H   0  0  0  0  0  0  0  0  0  0  0  0
  129.1501  133.8535  156.3420 H   0  0  0  0  0  0  0  0  0  0  0  0
  129.5876  132.6380  154.2463 H   0  0  0  0  0  0  0  0  0  0  0  0
  131.0386  130.6486  154.2559 H   0  0  0  0  0  0  0  0  0  0  0  0
  132.0612  129.8805  156.3595 H   0  0  0  0  0  0  0  0  0  0  0  0
  127.7571  132.2351  159.6103 H   0  0  0  0  0  0  0  0  0  0  0  0
  1  2  1  0
  2 36  2  0
  2  3  1  0
  3  4  2  0
  3 37  1  0
  4  5  1  0
  4 38  1  0
  5  6  1  0
  5  7  2  0
  7  8  1  0
  7 36  1  0
  8  9  1  1
  8 10  1  0
  8 29  1  0
 10 11  1  0
 10 12  1  0
 10 13  1  0
 13 14  2  0
 13 39  1  0
 14 15  1  0
 14 40  1  0
 15 16  1  0
 15 41  1  0
 15 42  1  0
 16 17  1  0
 16 43  1  0
 16 44  1  0
 17 18  1  0
 18 19  1  0
 18 45  1  0
 18 46  1  0
 19 28  1  0
 19 20  2  0
 20 21  1  0
 20 47  1  0
 21 22  2  0
 21 48  1  0
 22 23  1  0
 22 49  1  0
 23 28  2  0
 23 24  1  0
 24 25  2  0
 24 50  1  0
 25 26  1  0
 25 51  1  0
 26 27  2  0
 26 52  1  0
 27 28  1  0
 29 34  1  0
 29 30  2  0
 30 31  1  0
 30 53  1  0
 31 32  2  0
 31 54  1  0
 32 33  1  0
 32 55  1  0
 33 34  2  0
 33 56  1  0
 34 35  1  0
 36 57  1  0
M  CHG  1  10   1
M  END
>  <DOCK_score>  (1) 
-56.064018

>  <SMILES>  (1) 
Fc1ccc(F)c([C@H]([NH2+]C=CCCSCc2cccc3cccnc23)c2ccccc2Cl)c1

$$$$
