CCc1ccc(-c2c[nH]c(N[C@H](CSc3ccccc3)Cc3ccc(Cl)cc3)[nH+]2)cc1
     RDKit          3D

 58 61  0  0  1  0  0  0  0  0999 V2000
  130.4291  129.0501  151.4432 C   0  0  0  0  0  0  0  0  0  0  0  0
  131.6678  129.5379  152.1973 C   0  0  0  0  0  0  0  0  0  0  0  0
  131.2405  130.3185  153.4135 C   0  0  0  0  0  0  0  0  0  0  0  0
  131.0477  129.6663  154.6180 C   0  0  0  0  0  0  0  0  0  0  0  0
  130.6619  130.3770  155.7364 C   0  0  0  0  0  0  0  0  0  0  0  0
  130.4555  131.7525  155.6478 C   0  0  0  0  0  0  0  0  0  0  0  0
  130.0355  132.5210  156.8450 C   0  0  0  0  0  0  0  0  0  0  0  0
  129.2953  132.0476  157.8780 C   0  0  0  0  0  0  0  0  0  0  0  0
  129.1397  133.0848  158.7650 N   0  0  0  0  0  0  0  0  0  0  0  0
  128.6554  133.0546  159.6050 H   0  0  0  0  0  0  0  0  0  0  0  0
  129.7899  134.1627  158.2478 C   0  0  0  0  0  0  0  0  0  0  0  0
  129.8734  135.4129  158.8364 N   0  0  0  0  0  0  0  0  0  0  0  0
  129.2266  135.6593  160.1276 C   0  0  2  0  0  0  0  0  0  0  0  0
  129.3634  134.7922  160.7737 H   0  0  0  0  0  0  0  0  0  0  0  0
  127.7318  135.9032  159.9109 C   0  0  0  0  0  0  0  0  0  0  0  0
  126.8415  135.6228  161.4664 S   0  0  0  0  0  0  0  0  0  0  0  0
  126.4380  133.9094  161.3888 C   0  0  0  0  0  0  0  0  0  0  0  0
  126.9107  133.0377  162.3625 C   0  0  0  0  0  0  0  0  0  0  0  0
  126.5884  131.6963  162.3012 C   0  0  0  0  0  0  0  0  0  0  0  0
  125.8045  131.2185  161.2668 C   0  0  0  0  0  0  0  0  0  0  0  0
  125.3367  132.0822  160.2931 C   0  0  0  0  0  0  0  0  0  0  0  0
  125.6510  133.4255  160.3507 C   0  0  0  0  0  0  0  0  0  0  0  0
  129.8539  136.8898  160.7856 C   0  0  0  0  0  0  0  0  0  0  0  0
  131.1558  136.5018  161.4380 C   0  0  0  0  0  0  0  0  0  0  0  0
  131.1707  136.0828  162.7553 C   0  0  0  0  0  0  0  0  0  0  0  0
  132.3638  135.7213  163.3522 C   0  0  0  0  0  0  0  0  0  0  0  0
  133.5447  135.7898  162.6348 C   0  0  0  0  0  0  0  0  0  0  0  0
  135.0445  135.3434  163.3864 Cl  0  0  0  0  0  0  0  0  0  0  0  0
  133.5299  136.2147  161.3182 C   0  0  0  0  0  0  0  0  0  0  0  0
  132.3355  136.5705  160.7205 C   0  0  0  0  0  0  0  0  0  0  0  0
  130.3289  133.8202  157.1032 N   0  0  0  0  0  0  0  0  0  0  0  0
  130.8519  134.4032  156.5309 H   0  0  0  0  0  0  0  0  0  0  0  0
  130.6459  132.4034  154.4301 C   0  0  0  0  0  0  0  0  0  0  0  0
  131.0372  131.6835  153.3196 C   0  0  0  0  0  0  0  0  0  0  0  0
  129.8314  129.9072  151.1332 H   0  0  0  0  0  0  0  0  0  0  0  0
  130.7382  128.4854  150.5636 H   0  0  0  0  0  0  0  0  0  0  0  0
  129.8352  128.4100  152.0957 H   0  0  0  0  0  0  0  0  0  0  0  0
  132.2655  128.6806  152.5072 H   0  0  0  0  0  0  0  0  0  0  0  0
  132.2617  130.1780  151.5448 H   0  0  0  0  0  0  0  0  0  0  0  0
  131.2033  128.5997  154.6844 H   0  0  0  0  0  0  0  0  0  0  0  0
  130.5162  129.8676  156.6776 H   0  0  0  0  0  0  0  0  0  0  0  0
  128.9030  131.0469  157.9828 H   0  0  0  0  0  0  0  0  0  0  0  0
  130.3604  136.1257  158.3940 H   0  0  0  0  0  0  0  0  0  0  0  0
  127.5752  136.9308  159.5829 H   0  0  0  0  0  0  0  0  0  0  0  0
  127.3584  135.2179  159.1499 H   0  0  0  0  0  0  0  0  0  0  0  0
  127.5263  133.4095  163.1682 H   0  0  0  0  0  0  0  0  0  0  0  0
  126.9523  131.0190  163.0595 H   0  0  0  0  0  0  0  0  0  0  0  0
  125.5575  130.1682  161.2191 H   0  0  0  0  0  0  0  0  0  0  0  0
  124.7251  131.7054  159.4866 H   0  0  0  0  0  0  0  0  0  0  0  0
  125.2859  134.0992  159.5897 H   0  0  0  0  0  0  0  0  0  0  0  0
  130.0396  137.6517  160.0286 H   0  0  0  0  0  0  0  0  0  0  0  0
  129.1734  137.2852  161.5397 H   0  0  0  0  0  0  0  0  0  0  0  0
  130.2494  136.0334  163.3166 H   0  0  0  0  0  0  0  0  0  0  0  0
  132.3747  135.3897  164.3801 H   0  0  0  0  0  0  0  0  0  0  0  0
  134.4514  136.2686  160.7576 H   0  0  0  0  0  0  0  0  0  0  0  0
  132.3239  136.9025  159.6929 H   0  0  0  0  0  0  0  0  0  0  0  0
  130.4871  133.4692  154.3557 H   0  0  0  0  0  0  0  0  0  0  0  0
  131.1847  132.1868  152.3755 H   0  0  0  0  0  0  0  0  0  0  0  0
  1  2  1  0
  1 35  1  0
  1 36  1  0
  1 37  1  0
  2  3  1  0
  2 38  1  0
  2 39  1  0
  3 34  2  0
  3  4  1  0
  4  5  2  0
  4 40  1  0
  5  6  1  0
  5 41  1  0
  6  7  1  0
  6 33  2  0
  7 31  1  0
  7  8  2  0
  8  9  1  0
  8 42  1  0
  9 10  1  0
  9 11  1  0
 11 12  1  0
 11 31  2  0
 12 13  1  0
 12 43  1  0
 13 14  1  1
 13 15  1  0
 13 23  1  0
 15 16  1  0
 15 44  1  0
 15 45  1  0
 16 17  1  0
 17 22  1  0
 17 18  2  0
 18 19  1  0
 18 46  1  0
 19 20  2  0
 19 47  1  0
 20 21  1  0
 20 48  1  0
 21 22  2  0
 21 49  1  0
 22 50  1  0
 23 24  1  0
 23 51  1  0
 23 52  1  0
 24 30  1  0
 24 25  2  0
 25 26  1  0
 25 53  1  0
 26 27  2  0
 26 54  1  0
 27 28  1  0
 27 29  1  0
 29 30  2  0
 29 55  1  0
 30 56  1  0
 31 32  1  0
 33 34  1  0
 33 57  1  0
 34 58  1  0
M  CHG  1  31   1
M  END
>  <DOCK_score>  (1) 
-62.631104

>  <SMILES>  (1) 
CCc1ccc(-c2c[nH]c(N[C@H](CSc3ccccc3)Cc3ccc(Cl)cc3)[nH+]2)cc1

$$$$
