[NH3+][C@H](C(=O)Nc1cccc(O)c1)c1cccc(Nc2cnc3c(c2)CCC3)c1
     RDKit          3D

 51 54  0  0  1  0  0  0  0  0999 V2000
  129.6630  136.1519  158.0360 N   0  0  0  0  0  0  0  0  0  0  0  0
  129.1342  136.9152  158.4306 H   0  0  0  0  0  0  0  0  0  0  0  0
  130.5700  136.4858  157.7459 H   0  0  0  0  0  0  0  0  0  0  0  0
  129.1710  135.7788  157.2380 H   0  0  0  0  0  0  0  0  0  0  0  0
  129.8291  135.0979  159.0456 C   0  0  2  0  0  0  0  0  0  0  0  0
  130.4005  134.2733  158.6192 H   0  0  0  0  0  0  0  0  0  0  0  0
  128.4746  134.5993  159.4788 C   0  0  0  0  0  0  0  0  0  0  0  0
  127.5197  135.3468  159.4627 O   0  0  0  0  0  0  0  0  0  0  0  0
  128.3243  133.3228  159.8842 N   0  0  0  0  0  0  0  0  0  0  0  0
  127.0667  132.8600  160.2865 C   0  0  0  0  0  0  0  0  0  0  0  0
  126.7281  131.5241  160.1101 C   0  0  0  0  0  0  0  0  0  0  0  0
  125.4870  131.0671  160.5081 C   0  0  0  0  0  0  0  0  0  0  0  0
  124.5808  131.9355  161.0869 C   0  0  0  0  0  0  0  0  0  0  0  0
  124.9115  133.2720  161.2603 C   0  0  0  0  0  0  0  0  0  0  0  0
  124.0175  134.1258  161.8248 O   0  0  0  0  0  0  0  0  0  0  0  0
  126.1563  133.7344  160.8626 C   0  0  0  0  0  0  0  0  0  0  0  0
  130.5641  135.6551  160.2374 C   0  0  0  0  0  0  0  0  0  0  0  0
  129.8569  136.2228  161.2816 C   0  0  0  0  0  0  0  0  0  0  0  0
  130.5270  136.7347  162.3772 C   0  0  0  0  0  0  0  0  0  0  0  0
  131.9061  136.6806  162.4325 C   0  0  0  0  0  0  0  0  0  0  0  0
  132.6196  136.1111  161.3855 C   0  0  0  0  0  0  0  0  0  0  0  0
  134.0146  136.0542  161.4382 N   0  0  0  0  0  0  0  0  0  0  0  0
  134.6637  135.9576  162.6720 C   0  0  0  0  0  0  0  0  0  0  0  0
  134.4186  134.8828  163.5177 C   0  0  0  0  0  0  0  0  0  0  0  0
  135.0330  134.7871  164.6775 N   0  0  0  0  0  0  0  0  0  0  0  0
  135.8932  135.7014  165.0960 C   0  0  0  0  0  0  0  0  0  0  0  0
  136.1823  136.8015  164.3104 C   0  0  0  0  0  0  0  0  0  0  0  0
  135.5630  136.9400  163.0781 C   0  0  0  0  0  0  0  0  0  0  0  0
  137.1867  137.6876  165.0127 C   0  0  0  0  0  0  0  0  0  0  0  0
  137.1526  137.2422  166.4903 C   0  0  0  0  0  0  0  0  0  0  0  0
  136.6887  135.7743  166.3834 C   0  0  0  0  0  0  0  0  0  0  0  0
  131.9426  135.5932  160.2882 C   0  0  0  0  0  0  0  0  0  0  0  0
  129.0881  132.7250  159.8971 H   0  0  0  0  0  0  0  0  0  0  0  0
  127.4359  130.8426  159.6619 H   0  0  0  0  0  0  0  0  0  0  0  0
  125.2255  130.0283  160.3705 H   0  0  0  0  0  0  0  0  0  0  0  0
  123.6127  131.5743  161.4012 H   0  0  0  0  0  0  0  0  0  0  0  0
  124.3377  135.0348  161.9037 H   0  0  0  0  0  0  0  0  0  0  0  0
  126.4169  134.7733  161.0005 H   0  0  0  0  0  0  0  0  0  0  0  0
  128.7783  136.2658  161.2413 H   0  0  0  0  0  0  0  0  0  0  0  0
  129.9717  137.1773  163.1908 H   0  0  0  0  0  0  0  0  0  0  0  0
  132.4290  137.0801  163.2888 H   0  0  0  0  0  0  0  0  0  0  0  0
  134.5325  136.0815  160.6185 H   0  0  0  0  0  0  0  0  0  0  0  0
  133.7201  134.1156  163.2180 H   0  0  0  0  0  0  0  0  0  0  0  0
  135.7736  137.7907  162.4468 H   0  0  0  0  0  0  0  0  0  0  0  0
  138.1820  137.5364  164.5949 H   0  0  0  0  0  0  0  0  0  0  0  0
  136.8939  138.7340  164.9261 H   0  0  0  0  0  0  0  0  0  0  0  0
  136.4347  137.8351  167.0573 H   0  0  0  0  0  0  0  0  0  0  0  0
  138.1438  137.3037  166.9396 H   0  0  0  0  0  0  0  0  0  0  0  0
  136.0574  135.5144  167.2331 H   0  0  0  0  0  0  0  0  0  0  0  0
  137.5502  135.1082  166.3336 H   0  0  0  0  0  0  0  0  0  0  0  0
  132.4940  135.1462  159.4743 H   0  0  0  0  0  0  0  0  0  0  0  0
  1  2  1  0
  1  3  1  0
  1  4  1  0
  1  5  1  0
  5  6  1  6
  5  7  1  0
  5 17  1  0
  7  8  2  0
  7  9  1  0
  9 10  1  0
  9 33  1  0
 10 16  1  0
 10 11  2  0
 11 12  1  0
 11 34  1  0
 12 13  2  0
 12 35  1  0
 13 14  1  0
 13 36  1  0
 14 15  1  0
 14 16  2  0
 15 37  1  0
 16 38  1  0
 17 32  1  0
 17 18  2  0
 18 19  1  0
 18 39  1  0
 19 20  2  0
 19 40  1  0
 20 21  1  0
 20 41  1  0
 21 22  1  0
 21 32  2  0
 22 23  1  0
 22 42  1  0
 23 28  1  0
 23 24  2  0
 24 25  1  0
 24 43  1  0
 25 26  2  0
 26 31  1  0
 26 27  1  0
 27 28  2  0
 27 29  1  0
 28 44  1  0
 29 30  1  0
 29 45  1  0
 29 46  1  0
 30 31  1  0
 30 47  1  0
 30 48  1  0
 31 49  1  0
 31 50  1  0
 32 51  1  0
M  CHG  1   1   1
M  END
>  <DOCK_score>  (1) 
-42.737778

>  <SMILES>  (1) 
[NH3+][C@H](C(=O)Nc1cccc(O)c1)c1cccc(Nc2cnc3c(c2)CCC3)c1

$$$$
