Oc1ccc(NC2CCCCC2)c(Nc2[nH]cc(-c3ccc(Br)cc3)[nH+]2)c1
     RDKit          3D

 51 54  0  0  1  0  0  0  0  0999 V2000
  125.9202  136.1934  160.6348 O   0  0  0  0  0  0  0  0  0  0  0  0
  127.2500  136.0784  160.8957 C   0  0  0  0  0  0  0  0  0  0  0  0
  127.7336  136.3591  162.1649 C   0  0  0  0  0  0  0  0  0  0  0  0
  129.0847  136.2428  162.4344 C   0  0  0  0  0  0  0  0  0  0  0  0
  129.9594  135.8396  161.4374 C   0  0  0  0  0  0  0  0  0  0  0  0
  131.3287  135.7158  161.7125 N   0  0  0  0  0  0  0  0  0  0  0  0
  132.2199  136.8636  161.5270 C   0  0  0  0  0  0  0  0  0  0  0  0
  133.2958  136.5126  160.4972 C   0  0  0  0  0  0  0  0  0  0  0  0
  134.2264  137.7116  160.3035 C   0  0  0  0  0  0  0  0  0  0  0  0
  134.8911  138.0620  161.6362 C   0  0  0  0  0  0  0  0  0  0  0  0
  133.8152  138.4129  162.6660 C   0  0  0  0  0  0  0  0  0  0  0  0
  132.8845  137.2140  162.8598 C   0  0  0  0  0  0  0  0  0  0  0  0
  129.4763  135.5625  160.1589 C   0  0  0  0  0  0  0  0  0  0  0  0
  130.3577  135.1604  159.1476 N   0  0  0  0  0  0  0  0  0  0  0  0
  130.1914  133.9308  158.5324 C   0  0  0  0  0  0  0  0  0  0  0  0
  129.6615  132.8192  159.1126 N   0  0  0  0  0  0  0  0  0  0  0  0
  129.3355  132.7462  160.0233 H   0  0  0  0  0  0  0  0  0  0  0  0
  129.6742  131.8198  158.1704 C   0  0  0  0  0  0  0  0  0  0  0  0
  130.2061  132.3501  157.0411 C   0  0  0  0  0  0  0  0  0  0  0  0
  130.4131  131.6384  155.7561 C   0  0  0  0  0  0  0  0  0  0  0  0
  129.7840  132.0902  154.5974 C   0  0  0  0  0  0  0  0  0  0  0  0
  129.9839  131.4274  153.4036 C   0  0  0  0  0  0  0  0  0  0  0  0
  130.7980  130.3100  153.3576 C   0  0  0  0  0  0  0  0  0  0  0  0
  131.0612  129.4014  151.7202 Br  0  0  0  0  0  0  0  0  0  0  0  0
  131.4216  129.8536  154.5069 C   0  0  0  0  0  0  0  0  0  0  0  0
  131.2326  130.5123  155.7046 C   0  0  0  0  0  0  0  0  0  0  0  0
  130.5183  133.6452  157.2955 N   0  0  0  0  0  0  0  0  0  0  0  0
  130.9161  134.2628  156.6620 H   0  0  0  0  0  0  0  0  0  0  0  0
  128.1204  135.6801  159.8926 C   0  0  0  0  0  0  0  0  0  0  0  0
  125.3935  136.4765  161.3948 H   0  0  0  0  0  0  0  0  0  0  0  0
  127.0534  136.6687  162.9446 H   0  0  0  0  0  0  0  0  0  0  0  0
  129.4584  136.4621  163.4238 H   0  0  0  0  0  0  0  0  0  0  0  0
  131.6860  134.8700  162.0258 H   0  0  0  0  0  0  0  0  0  0  0  0
  131.6430  137.7180  161.1728 H   0  0  0  0  0  0  0  0  0  0  0  0
  133.8727  135.6584  160.8513 H   0  0  0  0  0  0  0  0  0  0  0  0
  132.8224  136.2631  159.5478 H   0  0  0  0  0  0  0  0  0  0  0  0
  133.6496  138.5659  159.9494 H   0  0  0  0  0  0  0  0  0  0  0  0
  134.9930  137.4616  159.5700 H   0  0  0  0  0  0  0  0  0  0  0  0
  135.5542  138.9161  161.4982 H   0  0  0  0  0  0  0  0  0  0  0  0
  135.4680  137.2077  161.9903 H   0  0  0  0  0  0  0  0  0  0  0  0
  133.2383  139.2672  162.3119 H   0  0  0  0  0  0  0  0  0  0  0  0
  134.2886  138.6625  163.6154 H   0  0  0  0  0  0  0  0  0  0  0  0
  132.1180  137.4640  163.5933 H   0  0  0  0  0  0  0  0  0  0  0  0
  133.4613  136.3596  163.2139 H   0  0  0  0  0  0  0  0  0  0  0  0
  131.0847  135.7433  158.8778 H   0  0  0  0  0  0  0  0  0  0  0  0
  129.3234  130.8069  158.3022 H   0  0  0  0  0  0  0  0  0  0  0  0
  129.1447  132.9599  154.6328 H   0  0  0  0  0  0  0  0  0  0  0  0
  129.4998  131.7788  152.5044 H   0  0  0  0  0  0  0  0  0  0  0  0
  132.0565  128.9809  154.4658 H   0  0  0  0  0  0  0  0  0  0  0  0
  131.7195  130.1560  156.6004 H   0  0  0  0  0  0  0  0  0  0  0  0
  127.7428  135.4621  158.9044 H   0  0  0  0  0  0  0  0  0  0  0  0
  1  2  1  0
  1 30  1  0
  2 29  2  0
  2  3  1  0
  3  4  2  0
  3 31  1  0
  4  5  1  0
  4 32  1  0
  5  6  1  0
  5 13  2  0
  6  7  1  0
  6 33  1  0
  7 12  1  0
  7  8  1  0
  7 34  1  0
  8  9  1  0
  8 35  1  0
  8 36  1  0
  9 10  1  0
  9 37  1  0
  9 38  1  0
 10 11  1  0
 10 39  1  0
 10 40  1  0
 11 12  1  0
 11 41  1  0
 11 42  1  0
 12 43  1  0
 12 44  1  0
 13 14  1  0
 13 29  1  0
 14 45  1  0
 15 14  1  0
 15 27  2  0
 15 16  1  0
 16 17  1  0
 16 18  1  0
 18 19  2  0
 18 46  1  0
 19 20  1  0
 19 27  1  0
 20 26  1  0
 20 21  2  0
 21 22  1  0
 21 47  1  0
 22 23  2  0
 22 48  1  0
 23 24  1  0
 23 25  1  0
 25 26  2  0
 25 49  1  0
 26 50  1  0
 27 28  1  0
 29 51  1  0
M  CHG  1  27   1
M  END
>  <DOCK_score>  (1) 
-53.612801

>  <SMILES>  (1) 
Oc1ccc(NC2CCCCC2)c(Nc2[nH]cc(-c3ccc(Br)cc3)[nH+]2)c1

$$$$
