O=C1CC[C@@H](NC(N[C@H]2CCC(=O)NC2)=[NH+]C2COc3ccc(-c4ccccc4)cc3C2)CN1
     RDKit          3D

 66 70  0  0  1  0  0  0  0  0999 V2000
  134.4812  140.7127  161.2859 O   0  0  0  0  0  0  0  0  0  0  0  0
  133.8494  139.7000  161.0710 C   0  0  0  0  0  0  0  0  0  0  0  0
  132.3546  139.7528  161.2057 C   0  0  0  0  0  0  0  0  0  0  0  0
  131.7246  138.5549  160.4905 C   0  0  0  0  0  0  0  0  0  0  0  0
  132.4579  137.2840  160.9365 C   0  0  1  0  0  0  0  0  0  0  0  0
  132.4799  137.2346  162.0251 H   0  0  0  0  0  0  0  0  0  0  0  0
  131.7676  136.1061  160.4050 N   0  0  0  0  0  0  0  0  0  0  0  0
  130.7682  135.5074  161.1348 C   0  0  0  0  0  0  0  0  0  0  0  0
  130.4164  136.0140  162.3637 N   0  0  0  0  0  0  0  0  0  0  0  0
  129.0406  135.8741  162.8471 C   0  0  1  0  0  0  0  0  0  0  0  0
  128.7807  134.8177  162.9170 H   0  0  0  0  0  0  0  0  0  0  0  0
  128.9116  136.5280  164.2281 C   0  0  0  0  0  0  0  0  0  0  0  0
  127.5223  136.2095  164.7863 C   0  0  0  0  0  0  0  0  0  0  0  0
  126.4770  136.5033  163.7490 C   0  0  0  0  0  0  0  0  0  0  0  0
  125.3255  136.6197  164.1113 O   0  0  0  0  0  0  0  0  0  0  0  0
  126.7439  136.6433  162.4517 N   0  0  0  0  0  0  0  0  0  0  0  0
  128.0838  136.5750  161.8820 C   0  0  0  0  0  0  0  0  0  0  0  0
  130.1541  134.4595  160.6619 N   0  0  0  0  0  0  0  0  0  0  0  0
  129.2291  134.2906  160.9004 H   0  0  0  0  0  0  0  0  0  0  0  0
  130.8608  133.5367  159.7702 C   0  0  1  0  0  0  0  0  0  0  0  0
  130.8673  132.1297  160.3818 C   0  0  0  0  0  0  0  0  0  0  0  0
  131.6498  131.2780  159.5442 O   0  0  0  0  0  0  0  0  0  0  0  0
  131.3947  131.2902  158.2098 C   0  0  0  0  0  0  0  0  0  0  0  0
  131.8709  130.2351  157.4353 C   0  0  0  0  0  0  0  0  0  0  0  0
  131.6399  130.2077  156.0779 C   0  0  0  0  0  0  0  0  0  0  0  0
  130.9256  131.2419  155.4749 C   0  0  0  0  0  0  0  0  0  0  0  0
  130.6752  131.2206  154.0129 C   0  0  0  0  0  0  0  0  0  0  0  0
  130.5492  132.4159  153.3075 C   0  0  0  0  0  0  0  0  0  0  0  0
  130.3205  132.3901  151.9466 C   0  0  0  0  0  0  0  0  0  0  0  0
  130.2065  131.1809  151.2847 C   0  0  0  0  0  0  0  0  0  0  0  0
  130.3259  129.9915  151.9806 C   0  0  0  0  0  0  0  0  0  0  0  0
  130.5593  130.0054  153.3409 C   0  0  0  0  0  0  0  0  0  0  0  0
  130.4487  132.2950  156.2505 C   0  0  0  0  0  0  0  0  0  0  0  0
  130.6815  132.3170  157.6135 C   0  0  0  0  0  0  0  0  0  0  0  0
  130.1413  133.4703  158.4209 C   0  0  0  0  0  0  0  0  0  0  0  0
  133.8876  137.3283  160.3958 C   0  0  0  0  0  0  0  0  0  0  0  0
  134.5192  138.5993  160.7273 N   0  0  0  0  0  0  0  0  0  0  0  0
  132.0851  139.7268  162.2616 H   0  0  0  0  0  0  0  0  0  0  0  0
  131.9834  140.6761  160.7613 H   0  0  0  0  0  0  0  0  0  0  0  0
  131.8248  138.6768  159.4119 H   0  0  0  0  0  0  0  0  0  0  0  0
  130.6700  138.4822  160.7558 H   0  0  0  0  0  0  0  0  0  0  0  0
  132.0158  135.7487  159.5380 H   0  0  0  0  0  0  0  0  0  0  0  0
  131.0792  136.4641  162.9106 H   0  0  0  0  0  0  0  0  0  0  0  0
  129.0312  137.6076  164.1355 H   0  0  0  0  0  0  0  0  0  0  0  0
  129.6756  136.1296  164.8958 H   0  0  0  0  0  0  0  0  0  0  0  0
  127.4749  135.1553  165.0597 H   0  0  0  0  0  0  0  0  0  0  0  0
  127.3380  136.8211  165.6695 H   0  0  0  0  0  0  0  0  0  0  0  0
  126.0009  136.8003  161.8483 H   0  0  0  0  0  0  0  0  0  0  0  0
  128.4444  137.5849  161.6872 H   0  0  0  0  0  0  0  0  0  0  0  0
  128.0457  136.0191  160.9451 H   0  0  0  0  0  0  0  0  0  0  0  0
  131.8854  133.8788  159.6247 H   0  0  0  0  0  0  0  0  0  0  0  0
  131.3042  132.1652  161.3797 H   0  0  0  0  0  0  0  0  0  0  0  0
  129.8472  131.7502  160.4405 H   0  0  0  0  0  0  0  0  0  0  0  0
  132.4242  129.4336  157.9019 H   0  0  0  0  0  0  0  0  0  0  0  0
  132.0116  129.3873  155.4819 H   0  0  0  0  0  0  0  0  0  0  0  0
  130.6339  133.3605  153.8241 H   0  0  0  0  0  0  0  0  0  0  0  0
  130.2268  133.3158  151.3983 H   0  0  0  0  0  0  0  0  0  0  0  0
  130.0238  131.1654  150.2203 H   0  0  0  0  0  0  0  0  0  0  0  0
  130.2360  129.0504  151.4588 H   0  0  0  0  0  0  0  0  0  0  0  0
  130.6525  129.0762  153.8833 H   0  0  0  0  0  0  0  0  0  0  0  0
  129.8947  133.0974  155.7863 H   0  0  0  0  0  0  0  0  0  0  0  0
  129.0733  133.3285  158.5859 H   0  0  0  0  0  0  0  0  0  0  0  0
  130.3032  134.4011  157.8773 H   0  0  0  0  0  0  0  0  0  0  0  0
  134.4641  136.5142  160.8348 H   0  0  0  0  0  0  0  0  0  0  0  0
  133.8667  137.2114  159.3123 H   0  0  0  0  0  0  0  0  0  0  0  0
  135.4875  138.6476  160.6960 H   0  0  0  0  0  0  0  0  0  0  0  0
  1  2  2  0
  2 37  1  0
  2  3  1  0
  3  4  1  0
  3 38  1  0
  3 39  1  0
  4  5  1  0
  4 40  1  0
  4 41  1  0
  5  6  1  1
  5  7  1  0
  5 36  1  0
  7 42  1  0
  8  7  1  0
  8  9  1  0
  8 18  2  0
  9 10  1  0
  9 43  1  0
 10 11  1  1
 10 17  1  0
 10 12  1  0
 12 13  1  0
 12 44  1  0
 12 45  1  0
 13 14  1  0
 13 46  1  0
 13 47  1  0
 14 15  2  0
 14 16  1  0
 16 17  1  0
 16 48  1  0
 17 49  1  0
 17 50  1  0
 18 19  1  0
 18 20  1  0
 20 35  1  0
 20 21  1  0
 20 51  1  6
 21 22  1  0
 21 52  1  0
 21 53  1  0
 22 23  1  0
 23 34  2  0
 23 24  1  0
 24 25  2  0
 24 54  1  0
 25 26  1  0
 25 55  1  0
 26 27  1  0
 26 33  2  0
 27 32  1  0
 27 28  2  0
 28 29  1  0
 28 56  1  0
 29 30  2  0
 29 57  1  0
 30 31  1  0
 30 58  1  0
 31 32  2  0
 31 59  1  0
 32 60  1  0
 33 34  1  0
 33 61  1  0
 34 35  1  0
 35 62  1  0
 35 63  1  0
 36 37  1  0
 36 64  1  0
 36 65  1  0
 37 66  1  0
M  CHG  1  18   1
M  END
>  <DOCK_score>  (1) 
-56.552429

>  <SMILES>  (1) 
O=C1CC[C@@H](NC(N[C@H]2CCC(=O)NC2)=[NH+]C2COc3ccc(-c4ccccc4)cc3C2)CN1

$$$$
