O=C1CCC(NC(N[C@H]2CCC(=O)NC2)=[NH+][C@H]2Cc3ccc(Br)cc3C2)CN1
     RDKit          3D

 55 58  0  0  1  0  0  0  0  0999 V2000
  131.4693  130.6633  155.4253 O   0  0  0  0  0  0  0  0  0  0  0  0
  130.9525  131.5077  156.1258 C   0  0  0  0  0  0  0  0  0  0  0  0
  130.1846  132.6123  155.4584 C   0  0  0  0  0  0  0  0  0  0  0  0
  129.2688  133.2981  156.4751 C   0  0  0  0  0  0  0  0  0  0  0  0
  130.0925  133.6256  157.7207 C   0  0  1  0  0  0  0  0  0  0  0  0
  129.2867  134.4370  158.6363 N   0  0  0  0  0  0  0  0  0  0  0  0
  129.8185  134.8565  159.8327 C   0  0  0  0  0  0  0  0  0  0  0  0
  128.9989  135.0488  160.9195 N   0  0  0  0  0  0  0  0  0  0  0  0
  127.5588  134.8068  160.8029 C   0  0  1  0  0  0  0  0  0  0  0  0
  127.2359  135.0068  159.7812 H   0  0  0  0  0  0  0  0  0  0  0  0
  127.2513  133.3484  161.1635 C   0  0  0  0  0  0  0  0  0  0  0  0
  125.7764  133.0753  160.8586 C   0  0  0  0  0  0  0  0  0  0  0  0
  124.9226  134.1585  161.4529 C   0  0  0  0  0  0  0  0  0  0  0  0
  123.7372  133.9436  161.5921 O   0  0  0  0  0  0  0  0  0  0  0  0
  125.3984  135.3439  161.8360 N   0  0  0  0  0  0  0  0  0  0  0  0
  126.8051  135.7198  161.7707 C   0  0  0  0  0  0  0  0  0  0  0  0
  131.0998  135.0718  159.9365 N   0  0  0  0  0  0  0  0  0  0  0  0
  131.6066  135.3650  159.1630 H   0  0  0  0  0  0  0  0  0  0  0  0
  131.7747  134.8710  161.2212 C   0  0  1  0  0  0  0  0  0  0  0  0
  131.2767  134.0940  161.8012 H   0  0  0  0  0  0  0  0  0  0  0  0
  133.2660  134.5337  161.0108 C   0  0  0  0  0  0  0  0  0  0  0  0
  133.9885  135.1960  162.1643 C   0  0  0  0  0  0  0  0  0  0  0  0
  135.2608  134.9815  162.6681 C   0  0  0  0  0  0  0  0  0  0  0  0
  135.7149  135.7163  163.7454 C   0  0  0  0  0  0  0  0  0  0  0  0
  134.8969  136.6699  164.3245 C   0  0  0  0  0  0  0  0  0  0  0  0
  135.5157  137.6783  165.7996 Br  0  0  0  0  0  0  0  0  0  0  0  0
  133.6275  136.8855  163.8226 C   0  0  0  0  0  0  0  0  0  0  0  0
  133.1707  136.1486  162.7428 C   0  0  0  0  0  0  0  0  0  0  0  0
  131.8427  136.1914  162.0175 C   0  0  0  0  0  0  0  0  0  0  0  0
  130.4917  132.3194  158.4086 C   0  0  0  0  0  0  0  0  0  0  0  0
  131.0960  131.4053  157.4476 N   0  0  0  0  0  0  0  0  0  0  0  0
  130.8827  133.3427  155.0495 H   0  0  0  0  0  0  0  0  0  0  0  0
  129.5822  132.1975  154.6501 H   0  0  0  0  0  0  0  0  0  0  0  0
  128.8678  134.2168  156.0468 H   0  0  0  0  0  0  0  0  0  0  0  0
  128.4500  132.6294  156.7409 H   0  0  0  0  0  0  0  0  0  0  0  0
  130.9884  134.1758  157.4326 H   0  0  0  0  0  0  0  0  0  0  0  0
  128.3778  134.6783  158.3984 H   0  0  0  0  0  0  0  0  0  0  0  0
  129.3743  135.3447  161.7636 H   0  0  0  0  0  0  0  0  0  0  0  0
  127.8781  132.6834  160.5693 H   0  0  0  0  0  0  0  0  0  0  0  0
  127.4433  133.1842  162.2238 H   0  0  0  0  0  0  0  0  0  0  0  0
  125.6286  133.0492  159.7790 H   0  0  0  0  0  0  0  0  0  0  0  0
  125.4901  132.1146  161.2866 H   0  0  0  0  0  0  0  0  0  0  0  0
  124.7688  135.9969  162.1797 H   0  0  0  0  0  0  0  0  0  0  0  0
  127.2469  135.6356  162.7636 H   0  0  0  0  0  0  0  0  0  0  0  0
  126.8867  136.7520  161.4298 H   0  0  0  0  0  0  0  0  0  0  0  0
  133.4174  133.4546  161.0392 H   0  0  0  0  0  0  0  0  0  0  0  0
  133.6156  134.9407  160.0620 H   0  0  0  0  0  0  0  0  0  0  0  0
  135.8999  134.2372  162.2165 H   0  0  0  0  0  0  0  0  0  0  0  0
  136.7075  135.5464  164.1357 H   0  0  0  0  0  0  0  0  0  0  0  0
  132.9891  137.6299  164.2749 H   0  0  0  0  0  0  0  0  0  0  0  0
  131.8094  137.0442  161.3395 H   0  0  0  0  0  0  0  0  0  0  0  0
  131.0224  136.2441  162.7334 H   0  0  0  0  0  0  0  0  0  0  0  0
  129.6053  131.8542  158.8402 H   0  0  0  0  0  0  0  0  0  0  0  0
  131.2080  132.5341  159.2015 H   0  0  0  0  0  0  0  0  0  0  0  0
  131.6364  130.6767  157.7910 H   0  0  0  0  0  0  0  0  0  0  0  0
  1  2  2  0
  2 31  1  0
  2  3  1  0
  3  4  1  0
  3 32  1  0
  3 33  1  0
  4  5  1  0
  4 34  1  0
  4 35  1  0
  5  6  1  0
  5 30  1  0
  5 36  1  6
  6 37  1  0
  7  6  1  0
  7  8  1  0
  7 17  2  0
  8  9  1  0
  8 38  1  0
  9 10  1  6
  9 16  1  0
  9 11  1  0
 11 12  1  0
 11 39  1  0
 11 40  1  0
 12 13  1  0
 12 41  1  0
 12 42  1  0
 13 14  2  0
 13 15  1  0
 15 16  1  0
 15 43  1  0
 16 44  1  0
 16 45  1  0
 17 18  1  0
 17 19  1  0
 19 20  1  1
 19 29  1  0
 19 21  1  0
 21 22  1  0
 21 46  1  0
 21 47  1  0
 22 28  2  0
 22 23  1  0
 23 24  2  0
 23 48  1  0
 24 25  1  0
 24 49  1  0
 25 26  1  0
 25 27  2  0
 27 28  1  0
 27 50  1  0
 28 29  1  0
 29 51  1  0
 29 52  1  0
 30 31  1  0
 30 53  1  0
 30 54  1  0
 31 55  1  0
M  CHG  1  17   1
M  END
>  <DOCK_score>  (1) 
-42.331043

>  <SMILES>  (1) 
O=C1CCC(NC(N[C@H]2CCC(=O)NC2)=[NH+][C@H]2Cc3ccc(Br)cc3C2)CN1

$$$$
