O=C1CC[C@H]([NH+]=C(NC2CC2)N[C@H]2C=CCCC2)CN1
     RDKit          3D

 45 47  0  0  1  0  0  0  0  0999 V2000
  123.8988  133.2791  161.4134 O   0  0  0  0  0  0  0  0  0  0  0  0
  124.9517  133.7656  161.0590 C   0  0  0  0  0  0  0  0  0  0  0  0
  126.0641  132.8390  160.6597 C   0  0  0  0  0  0  0  0  0  0  0  0
  127.3977  133.5902  160.6726 C   0  0  0  0  0  0  0  0  0  0  0  0
  127.2220  134.9028  159.8994 C   0  0  2  0  0  0  0  0  0  0  0  0
  126.7990  134.6944  158.9166 H   0  0  0  0  0  0  0  0  0  0  0  0
  128.5219  135.5604  159.7456 N   0  0  0  0  0  0  0  0  0  0  0  0
  128.6631  136.4474  160.1118 H   0  0  0  0  0  0  0  0  0  0  0  0
  129.4889  134.9537  159.1164 C   0  0  0  0  0  0  0  0  0  0  0  0
  130.7963  135.2044  159.4598 N   0  0  0  0  0  0  0  0  0  0  0  0
  131.1343  135.5724  160.8371 C   0  0  0  0  0  0  0  0  0  0  0  0
  131.6158  137.0027  161.0882 C   0  0  0  0  0  0  0  0  0  0  0  0
  132.6068  135.8389  161.1560 C   0  0  0  0  0  0  0  0  0  0  0  0
  129.2013  134.0629  158.1096 N   0  0  0  0  0  0  0  0  0  0  0  0
  130.2880  133.3808  157.4023 C   0  0  1  0  0  0  0  0  0  0  0  0
  131.1682  134.0237  157.3907 H   0  0  0  0  0  0  0  0  0  0  0  0
  130.6166  132.1000  158.1119 C   0  0  0  0  0  0  0  0  0  0  0  0
  130.8482  130.9770  157.5113 C   0  0  0  0  0  0  0  0  0  0  0  0
  130.8102  130.7964  156.0221 C   0  0  0  0  0  0  0  0  0  0  0  0
  130.8880  132.1560  155.3242 C   0  0  0  0  0  0  0  0  0  0  0  0
  129.8534  133.0901  155.9641 C   0  0  0  0  0  0  0  0  0  0  0  0
  126.2756  135.8136  160.6826 C   0  0  0  0  0  0  0  0  0  0  0  0
  125.0596  135.0946  161.0442 N   0  0  0  0  0  0  0  0  0  0  0  0
  125.8739  132.4558  159.6572 H   0  0  0  0  0  0  0  0  0  0  0  0
  126.1104  132.0070  161.3625 H   0  0  0  0  0  0  0  0  0  0  0  0
  128.1658  132.9826  160.1943 H   0  0  0  0  0  0  0  0  0  0  0  0
  127.6879  133.8062  161.7008 H   0  0  0  0  0  0  0  0  0  0  0  0
  131.4950  135.1376  158.7903 H   0  0  0  0  0  0  0  0  0  0  0  0
  130.5287  135.1016  161.6115 H   0  0  0  0  0  0  0  0  0  0  0  0
  131.6812  137.6699  160.2287 H   0  0  0  0  0  0  0  0  0  0  0  0
  131.3271  137.4732  162.0281 H   0  0  0  0  0  0  0  0  0  0  0  0
  132.9699  135.5437  162.1405 H   0  0  0  0  0  0  0  0  0  0  0  0
  133.3239  135.7404  160.3412 H   0  0  0  0  0  0  0  0  0  0  0  0
  128.2788  133.8858  157.8674 H   0  0  0  0  0  0  0  0  0  0  0  0
  130.6631  132.1164  159.1908 H   0  0  0  0  0  0  0  0  0  0  0  0
  131.0831  130.1162  158.1200 H   0  0  0  0  0  0  0  0  0  0  0  0
  131.6549  130.1817  155.7109 H   0  0  0  0  0  0  0  0  0  0  0  0
  129.8804  130.3014  155.7417 H   0  0  0  0  0  0  0  0  0  0  0  0
  131.8865  132.5753  155.4489 H   0  0  0  0  0  0  0  0  0  0  0  0
  130.6710  132.0359  154.2627 H   0  0  0  0  0  0  0  0  0  0  0  0
  128.8762  132.6074  155.9672 H   0  0  0  0  0  0  0  0  0  0  0  0
  129.8033  134.0220  155.4011 H   0  0  0  0  0  0  0  0  0  0  0  0
  126.7732  136.1548  161.5903 H   0  0  0  0  0  0  0  0  0  0  0  0
  126.0181  136.6776  160.0700 H   0  0  0  0  0  0  0  0  0  0  0  0
  124.2790  135.6168  161.2870 H   0  0  0  0  0  0  0  0  0  0  0  0
  1  2  2  0
  2 23  1  0
  2  3  1  0
  3  4  1  0
  3 24  1  0
  3 25  1  0
  4  5  1  0
  4 26  1  0
  4 27  1  0
  5  6  1  6
  5  7  1  0
  5 22  1  0
  7  8  1  0
  9  7  2  0
  9 10  1  0
  9 14  1  0
 10 11  1  0
 10 28  1  0
 11 13  1  0
 11 12  1  0
 11 29  1  0
 12 13  1  0
 12 30  1  0
 12 31  1  0
 13 32  1  0
 13 33  1  0
 14 15  1  0
 14 34  1  0
 15 16  1  6
 15 21  1  0
 15 17  1  0
 17 18  2  0
 17 35  1  0
 18 19  1  0
 18 36  1  0
 19 20  1  0
 19 37  1  0
 19 38  1  0
 20 21  1  0
 20 39  1  0
 20 40  1  0
 21 41  1  0
 21 42  1  0
 22 23  1  0
 22 43  1  0
 22 44  1  0
 23 45  1  0
M  CHG  1   7   1
M  END
>  <DOCK_score>  (1) 
-42.014912

>  <SMILES>  (1) 
O=C1CC[C@H]([NH+]=C(NC2CC2)N[C@H]2C=CCCC2)CN1

$$$$
