Cc1ccccc1-c1c[nH]c(N[C@@H](CCc2ccccc2)c2ccccc2)[nH+]1
     RDKit          3D

 54 57  0  0  1  0  0  0  0  0999 V2000
  131.4607  130.0263  156.8605 C   0  0  0  0  0  0  0  0  0  0  0  0
  130.9794  130.5604  155.5361 C   0  0  0  0  0  0  0  0  0  0  0  0
  131.2230  129.8535  154.3758 C   0  0  0  0  0  0  0  0  0  0  0  0
  130.7816  130.3424  153.1596 C   0  0  0  0  0  0  0  0  0  0  0  0
  130.0944  131.5415  153.0984 C   0  0  0  0  0  0  0  0  0  0  0  0
  129.8457  132.2568  154.2518 C   0  0  0  0  0  0  0  0  0  0  0  0
  130.2827  131.7660  155.4810 C   0  0  0  0  0  0  0  0  0  0  0  0
  130.0121  132.5269  156.7254 C   0  0  0  0  0  0  0  0  0  0  0  0
  129.3015  132.0849  157.7923 C   0  0  0  0  0  0  0  0  0  0  0  0
  129.2991  133.1001  158.7179 N   0  0  0  0  0  0  0  0  0  0  0  0
  128.8717  133.0828  159.5884 H   0  0  0  0  0  0  0  0  0  0  0  0
  130.0024  134.1366  158.1855 C   0  0  0  0  0  0  0  0  0  0  0  0
  130.2312  135.3557  158.8002 N   0  0  0  0  0  0  0  0  0  0  0  0
  129.6962  135.6127  160.1396 C   0  0  1  0  0  0  0  0  0  0  0  0
  130.1045  134.8839  160.8400 H   0  0  0  0  0  0  0  0  0  0  0  0
  130.0897  137.0229  160.5840 C   0  0  0  0  0  0  0  0  0  0  0  0
  131.5334  137.0139  161.0900 C   0  0  0  0  0  0  0  0  0  0  0  0
  131.9209  138.4030  161.5278 C   0  0  0  0  0  0  0  0  0  0  0  0
  132.8432  138.5757  162.5429 C   0  0  0  0  0  0  0  0  0  0  0  0
  133.2022  139.8499  162.9411 C   0  0  0  0  0  0  0  0  0  0  0  0
  132.6311  140.9512  162.3313 C   0  0  0  0  0  0  0  0  0  0  0  0
  131.7049  140.7784  161.3197 C   0  0  0  0  0  0  0  0  0  0  0  0
  131.3498  139.5043  160.9181 C   0  0  0  0  0  0  0  0  0  0  0  0
  128.1941  135.4956  160.1115 C   0  0  0  0  0  0  0  0  0  0  0  0
  127.5124  135.0751  161.2383 C   0  0  0  0  0  0  0  0  0  0  0  0
  126.1341  134.9715  161.2137 C   0  0  0  0  0  0  0  0  0  0  0  0
  125.4382  135.2806  160.0600 C   0  0  0  0  0  0  0  0  0  0  0  0
  126.1203  135.6962  158.9318 C   0  0  0  0  0  0  0  0  0  0  0  0
  127.4982  135.8035  158.9575 C   0  0  0  0  0  0  0  0  0  0  0  0
  130.4268  133.7902  156.9949 N   0  0  0  0  0  0  0  0  0  0  0  0
  130.9534  134.3482  156.4011 H   0  0  0  0  0  0  0  0  0  0  0  0
  132.4235  130.4746  157.1050 H   0  0  0  0  0  0  0  0  0  0  0  0
  131.5695  128.9435  156.7979 H   0  0  0  0  0  0  0  0  0  0  0  0
  130.7368  130.2742  157.6369 H   0  0  0  0  0  0  0  0  0  0  0  0
  131.7589  128.9168  154.4178 H   0  0  0  0  0  0  0  0  0  0  0  0
  130.9737  129.7855  152.2543 H   0  0  0  0  0  0  0  0  0  0  0  0
  129.7523  131.9187  152.1460 H   0  0  0  0  0  0  0  0  0  0  0  0
  129.3094  133.1932  154.2028 H   0  0  0  0  0  0  0  0  0  0  0  0
  128.8293  131.1192  157.8956 H   0  0  0  0  0  0  0  0  0  0  0  0
  130.7457  136.0398  158.3440 H   0  0  0  0  0  0  0  0  0  0  0  0
  130.0049  137.7068  159.7395 H   0  0  0  0  0  0  0  0  0  0  0  0
  129.4260  137.3500  161.3845 H   0  0  0  0  0  0  0  0  0  0  0  0
  131.6182  136.3300  161.9345 H   0  0  0  0  0  0  0  0  0  0  0  0
  132.1970  136.6869  160.2896 H   0  0  0  0  0  0  0  0  0  0  0  0
  133.2861  137.7153  163.0223 H   0  0  0  0  0  0  0  0  0  0  0  0
  133.9256  139.9849  163.7316 H   0  0  0  0  0  0  0  0  0  0  0  0
  132.9083  141.9466  162.6454 H   0  0  0  0  0  0  0  0  0  0  0  0
  131.2584  141.6389  160.8437 H   0  0  0  0  0  0  0  0  0  0  0  0
  130.6259  139.3693  160.1280 H   0  0  0  0  0  0  0  0  0  0  0  0
  128.0565  134.8303  162.1385 H   0  0  0  0  0  0  0  0  0  0  0  0
  125.6014  134.6464  162.0951 H   0  0  0  0  0  0  0  0  0  0  0  0
  124.3616  135.1970  160.0400 H   0  0  0  0  0  0  0  0  0  0  0  0
  125.5765  135.9372  158.0303 H   0  0  0  0  0  0  0  0  0  0  0  0
  128.0311  136.1281  158.0760 H   0  0  0  0  0  0  0  0  0  0  0  0
  1  2  1  0
  1 32  1  0
  1 33  1  0
  1 34  1  0
  2  7  2  0
  2  3  1  0
  3  4  2  0
  3 35  1  0
  4  5  1  0
  4 36  1  0
  5  6  2  0
  5 37  1  0
  6  7  1  0
  6 38  1  0
  7  8  1  0
  8 30  1  0
  8  9  2  0
  9 10  1  0
  9 39  1  0
 10 11  1  0
 10 12  1  0
 12 13  1  0
 12 30  2  0
 13 14  1  0
 13 40  1  0
 14 15  1  1
 14 16  1  0
 14 24  1  0
 16 17  1  0
 16 41  1  0
 16 42  1  0
 17 18  1  0
 17 43  1  0
 17 44  1  0
 18 23  1  0
 18 19  2  0
 19 20  1  0
 19 45  1  0
 20 21  2  0
 20 46  1  0
 21 22  1  0
 21 47  1  0
 22 23  2  0
 22 48  1  0
 23 49  1  0
 24 29  1  0
 24 25  2  0
 25 26  1  0
 25 50  1  0
 26 27  2  0
 26 51  1  0
 27 28  1  0
 27 52  1  0
 28 29  2  0
 28 53  1  0
 29 54  1  0
 30 31  1  0
M  CHG  1  30   1
M  END
>  <DOCK_score>  (1) 
-58.574566

>  <SMILES>  (1) 
Cc1ccccc1-c1c[nH]c(N[C@@H](CCc2ccccc2)c2ccccc2)[nH+]1

$$$$
