Nc1ccc(-c2c[nH]c(Nc3ccc(OC4CC4)cc3)[nH+]2)cc1
     RDKit          3D

 42 45  0  0  1  0  0  0  0  0999 V2000
  131.1309  129.3425  151.9447 N   0  0  0  0  0  0  0  0  0  0  0  0
  130.9136  130.0723  153.1159 C   0  0  0  0  0  0  0  0  0  0  0  0
  130.0874  131.1905  153.0938 C   0  0  0  0  0  0  0  0  0  0  0  0
  129.8717  131.9122  154.2487 C   0  0  0  0  0  0  0  0  0  0  0  0
  130.4824  131.5199  155.4388 C   0  0  0  0  0  0  0  0  0  0  0  0
  130.2521  132.2951  156.6827 C   0  0  0  0  0  0  0  0  0  0  0  0
  129.7061  131.8200  157.8295 C   0  0  0  0  0  0  0  0  0  0  0  0
  129.6835  132.8644  158.7227 N   0  0  0  0  0  0  0  0  0  0  0  0
  129.3523  132.8341  159.6339 H   0  0  0  0  0  0  0  0  0  0  0  0
  130.2083  133.9498  158.0911 C   0  0  0  0  0  0  0  0  0  0  0  0
  130.3616  135.2099  158.6453 N   0  0  0  0  0  0  0  0  0  0  0  0
  129.4714  135.6545  159.6303 C   0  0  0  0  0  0  0  0  0  0  0  0
  129.9433  135.9915  160.8922 C   0  0  0  0  0  0  0  0  0  0  0  0
  129.0653  136.4355  161.8613 C   0  0  0  0  0  0  0  0  0  0  0  0
  127.7109  136.5339  161.5780 C   0  0  0  0  0  0  0  0  0  0  0  0
  126.8461  136.9660  162.5345 O   0  0  0  0  0  0  0  0  0  0  0  0
  127.3568  137.8844  163.5034 C   0  0  0  0  0  0  0  0  0  0  0  0
  126.5685  139.1745  163.7379 C   0  0  0  0  0  0  0  0  0  0  0  0
  127.9048  139.2183  162.9924 C   0  0  0  0  0  0  0  0  0  0  0  0
  127.2380  136.1919  160.3197 C   0  0  0  0  0  0  0  0  0  0  0  0
  128.1154  135.7533  159.3477 C   0  0  0  0  0  0  0  0  0  0  0  0
  130.5500  133.6044  156.8734 N   0  0  0  0  0  0  0  0  0  0  0  0
  130.9521  134.1915  156.2143 H   0  0  0  0  0  0  0  0  0  0  0  0
  131.3141  130.4014  155.4573 C   0  0  0  0  0  0  0  0  0  0  0  0
  131.5231  129.6798  154.3011 C   0  0  0  0  0  0  0  0  0  0  0  0
  130.7050  129.6166  151.1166 H   0  0  0  0  0  0  0  0  0  0  0  0
  131.7067  128.5630  151.9587 H   0  0  0  0  0  0  0  0  0  0  0  0
  129.6146  131.4941  152.1715 H   0  0  0  0  0  0  0  0  0  0  0  0
  129.2298  132.7807  154.2314 H   0  0  0  0  0  0  0  0  0  0  0  0
  129.3598  130.8128  158.0083 H   0  0  0  0  0  0  0  0  0  0  0  0
  131.0880  135.7828  158.3539 H   0  0  0  0  0  0  0  0  0  0  0  0
  130.9971  135.9106  161.1142 H   0  0  0  0  0  0  0  0  0  0  0  0
  129.4325  136.7018  162.8414 H   0  0  0  0  0  0  0  0  0  0  0  0
  127.8516  137.4334  164.3636 H   0  0  0  0  0  0  0  0  0  0  0  0
  125.6607  139.3230  163.1533 H   0  0  0  0  0  0  0  0  0  0  0  0
  126.5452  139.5727  164.7523 H   0  0  0  0  0  0  0  0  0  0  0  0
  128.7598  139.6451  163.5166 H   0  0  0  0  0  0  0  0  0  0  0  0
  127.8764  139.3953  161.9171 H   0  0  0  0  0  0  0  0  0  0  0  0
  126.1834  136.2693  160.0999 H   0  0  0  0  0  0  0  0  0  0  0  0
  127.7471  135.4875  158.3677 H   0  0  0  0  0  0  0  0  0  0  0  0
  131.7915  130.0980  156.3774 H   0  0  0  0  0  0  0  0  0  0  0  0
  132.1646  128.8110  154.3157 H   0  0  0  0  0  0  0  0  0  0  0  0
  1  2  1  0
  1 26  1  0
  1 27  1  0
  2 25  2  0
  2  3  1  0
  3  4  2  0
  3 28  1  0
  4  5  1  0
  4 29  1  0
  5  6  1  0
  5 24  2  0
  6 22  1  0
  6  7  2  0
  7  8  1  0
  7 30  1  0
  8  9  1  0
  8 10  1  0
 10 11  1  0
 10 22  2  0
 11 12  1  0
 11 31  1  0
 12 21  1  0
 12 13  2  0
 13 14  1  0
 13 32  1  0
 14 15  2  0
 14 33  1  0
 15 16  1  0
 15 20  1  0
 16 17  1  0
 17 19  1  0
 17 18  1  0
 17 34  1  0
 18 19  1  0
 18 35  1  0
 18 36  1  0
 19 37  1  0
 19 38  1  0
 20 21  2  0
 20 39  1  0
 21 40  1  0
 22 23  1  0
 24 25  1  0
 24 41  1  0
 25 42  1  0
M  CHG  1  22   1
M  END
>  <DOCK_score>  (1) 
-49.846863

>  <SMILES>  (1) 
Nc1ccc(-c2c[nH]c(Nc3ccc(OC4CC4)cc3)[nH+]2)cc1

$$$$
