Fc1cccc([C@@H](Nc2[nH]cc(-c3ccccc3)[nH+]2)c2cccc(-c3ccccc3)c2)c1
     RDKit          3D

 55 59  0  0  1  0  0  0  0  0999 V2000
  126.0191  134.7690  162.8146 F   0  0  0  0  0  0  0  0  0  0  0  0
  126.6749  135.1551  161.6983 C   0  0  0  0  0  0  0  0  0  0  0  0
  125.9641  135.4900  160.5580 C   0  0  0  0  0  0  0  0  0  0  0  0
  126.6357  135.8852  159.4169 C   0  0  0  0  0  0  0  0  0  0  0  0
  128.0172  135.9407  159.4116 C   0  0  0  0  0  0  0  0  0  0  0  0
  128.7276  135.6122  160.5510 C   0  0  0  0  0  0  0  0  0  0  0  0
  130.2331  135.6794  160.5456 C   0  0  1  0  0  0  0  0  0  0  0  0
  130.6322  134.9388  161.2387 H   0  0  0  0  0  0  0  0  0  0  0  0
  130.7294  135.4022  159.1955 N   0  0  0  0  0  0  0  0  0  0  0  0
  130.4465  134.1901  158.5893 C   0  0  0  0  0  0  0  0  0  0  0  0
  129.7163  133.1810  159.1375 N   0  0  0  0  0  0  0  0  0  0  0  0
  129.3041  133.1814  160.0156 H   0  0  0  0  0  0  0  0  0  0  0  0
  129.6709  132.1615  158.2179 C   0  0  0  0  0  0  0  0  0  0  0  0
  130.3739  132.5765  157.1351 C   0  0  0  0  0  0  0  0  0  0  0  0
  130.5968  131.8022  155.8898 C   0  0  0  0  0  0  0  0  0  0  0  0
  130.1474  132.2987  154.6675 C   0  0  0  0  0  0  0  0  0  0  0  0
  130.3635  131.5772  153.5110 C   0  0  0  0  0  0  0  0  0  0  0  0
  131.0134  130.3569  153.5654 C   0  0  0  0  0  0  0  0  0  0  0  0
  131.4561  129.8566  154.7764 C   0  0  0  0  0  0  0  0  0  0  0  0
  131.2514  130.5727  155.9383 C   0  0  0  0  0  0  0  0  0  0  0  0
  130.8330  133.8275  157.3905 N   0  0  0  0  0  0  0  0  0  0  0  0
  131.3644  134.3663  156.7839 H   0  0  0  0  0  0  0  0  0  0  0  0
  130.6762  137.0556  160.9710 C   0  0  0  0  0  0  0  0  0  0  0  0
  129.7334  138.0165  161.2901 C   0  0  0  0  0  0  0  0  0  0  0  0
  130.1329  139.2799  161.6859 C   0  0  0  0  0  0  0  0  0  0  0  0
  131.4758  139.5921  161.7544 C   0  0  0  0  0  0  0  0  0  0  0  0
  132.4295  138.6298  161.4291 C   0  0  0  0  0  0  0  0  0  0  0  0
  133.8745  138.9594  161.5014 C   0  0  0  0  0  0  0  0  0  0  0  0
  134.8037  137.9664  161.8042 C   0  0  0  0  0  0  0  0  0  0  0  0
  136.1472  138.2770  161.8640 C   0  0  0  0  0  0  0  0  0  0  0  0
  136.5705  139.5741  161.6356 C   0  0  0  0  0  0  0  0  0  0  0  0
  135.6517  140.5650  161.3408 C   0  0  0  0  0  0  0  0  0  0  0  0
  134.3065  140.2642  161.2722 C   0  0  0  0  0  0  0  0  0  0  0  0
  132.0212  137.3567  161.0360 C   0  0  0  0  0  0  0  0  0  0  0  0
  128.0578  135.2168  161.6936 C   0  0  0  0  0  0  0  0  0  0  0  0
  124.8851  135.4419  160.5603 H   0  0  0  0  0  0  0  0  0  0  0  0
  126.0816  136.1463  158.5275 H   0  0  0  0  0  0  0  0  0  0  0  0
  128.5416  136.2452  158.5180 H   0  0  0  0  0  0  0  0  0  0  0  0
  131.2563  136.0679  158.7262 H   0  0  0  0  0  0  0  0  0  0  0  0
  129.1706  131.2114  158.3347 H   0  0  0  0  0  0  0  0  0  0  0  0
  129.6354  133.2486  154.6247 H   0  0  0  0  0  0  0  0  0  0  0  0
  130.0202  131.9633  152.5627 H   0  0  0  0  0  0  0  0  0  0  0  0
  131.1761  129.7932  152.6587 H   0  0  0  0  0  0  0  0  0  0  0  0
  131.9631  128.9037  154.8127 H   0  0  0  0  0  0  0  0  0  0  0  0
  131.5981  130.1812  156.8831 H   0  0  0  0  0  0  0  0  0  0  0  0
  128.6816  137.7779  161.2335 H   0  0  0  0  0  0  0  0  0  0  0  0
  129.3928  140.0252  161.9375 H   0  0  0  0  0  0  0  0  0  0  0  0
  131.7867  140.5804  162.0593 H   0  0  0  0  0  0  0  0  0  0  0  0
  134.4739  136.9543  161.9871 H   0  0  0  0  0  0  0  0  0  0  0  0
  136.8689  137.5072  162.0939 H   0  0  0  0  0  0  0  0  0  0  0  0
  137.6222  139.8136  161.6875 H   0  0  0  0  0  0  0  0  0  0  0  0
  135.9876  141.5759  161.1633 H   0  0  0  0  0  0  0  0  0  0  0  0
  133.5899  141.0385  161.0411 H   0  0  0  0  0  0  0  0  0  0  0  0
  132.7563  136.6071  160.7824 H   0  0  0  0  0  0  0  0  0  0  0  0
  128.6132  134.9554  162.5822 H   0  0  0  0  0  0  0  0  0  0  0  0
  1  2  1  0
  2 35  2  0
  2  3  1  0
  3  4  2  0
  3 36  1  0
  4  5  1  0
  4 37  1  0
  5  6  2  0
  5 38  1  0
  6  7  1  0
  6 35  1  0
  7  8  1  1
  7  9  1  0
  7 23  1  0
  9 39  1  0
 10  9  1  0
 10 21  2  0
 10 11  1  0
 11 12  1  0
 11 13  1  0
 13 14  2  0
 13 40  1  0
 14 15  1  0
 14 21  1  0
 15 20  1  0
 15 16  2  0
 16 17  1  0
 16 41  1  0
 17 18  2  0
 17 42  1  0
 18 19  1  0
 18 43  1  0
 19 20  2  0
 19 44  1  0
 20 45  1  0
 21 22  1  0
 23 34  1  0
 23 24  2  0
 24 25  1  0
 24 46  1  0
 25 26  2  0
 25 47  1  0
 26 27  1  0
 26 48  1  0
 27 28  1  0
 27 34  2  0
 28 33  1  0
 28 29  2  0
 29 30  1  0
 29 49  1  0
 30 31  2  0
 30 50  1  0
 31 32  1  0
 31 51  1  0
 32 33  2  0
 32 52  1  0
 33 53  1  0
 34 54  1  0
 35 55  1  0
M  CHG  1  21   1
M  END
>  <DOCK_score>  (1) 
-61.806808

>  <SMILES>  (1) 
Fc1cccc([C@@H](Nc2[nH]cc(-c3ccccc3)[nH+]2)c2cccc(-c3ccccc3)c2)c1

$$$$
