C[C@@H]1CNC(N[C@@H]2C[C@H](O)C[C@@H]2Nc2ccc(I)cc2)=[NH+]1
     RDKit          3D

 43 45  0  0  1  0  0  0  0  0999 V2000
  131.1882  130.6013  158.8151 C   0  0  0  0  0  0  0  0  0  0  0  0
  130.2312  131.6942  158.3348 C   0  0  2  0  0  0  0  0  0  0  0  0
  129.2383  131.2821  158.1551 H   0  0  0  0  0  0  0  0  0  0  0  0
  130.7731  132.3678  157.0583 C   0  0  0  0  0  0  0  0  0  0  0  0
  130.9594  133.7695  157.4688 N   0  0  0  0  0  0  0  0  0  0  0  0
  130.5792  133.8896  158.7773 C   0  0  0  0  0  0  0  0  0  0  0  0
  130.6325  135.0798  159.4634 N   0  0  0  0  0  0  0  0  0  0  0  0
  130.2093  135.1371  160.8648 C   0  0  2  0  0  0  0  0  0  0  0  0
  130.8213  134.4658  161.4670 H   0  0  0  0  0  0  0  0  0  0  0  0
  128.7215  134.7472  160.9838 C   0  0  0  0  0  0  0  0  0  0  0  0
  128.1720  135.6796  162.0921 C   0  0  2  0  0  0  0  0  0  0  0  0
  128.4224  135.2972  163.0817 H   0  0  0  0  0  0  0  0  0  0  0  0
  126.7591  135.8470  161.9585 O   0  0  0  0  0  0  0  0  0  0  0  0
  128.9114  137.0122  161.8152 C   0  0  0  0  0  0  0  0  0  0  0  0
  130.3300  136.5772  161.3933 C   0  0  2  0  0  0  0  0  0  0  0  0
  131.0006  136.6047  162.2523 H   0  0  0  0  0  0  0  0  0  0  0  0
  130.8318  137.4592  160.3367 N   0  0  0  0  0  0  0  0  0  0  0  0
  132.0296  138.1552  160.5180 C   0  0  0  0  0  0  0  0  0  0  0  0
  133.2334  137.5819  160.1289 C   0  0  0  0  0  0  0  0  0  0  0  0
  134.4153  138.2744  160.3050 C   0  0  0  0  0  0  0  0  0  0  0  0
  134.4017  139.5339  160.8776 C   0  0  0  0  0  0  0  0  0  0  0  0
  136.1976  140.5779  161.1501 I   0  0  0  0  0  0  0  0  0  0  0  0
  133.2051  140.1051  161.2711 C   0  0  0  0  0  0  0  0  0  0  0  0
  132.0195  139.4195  161.0931 C   0  0  0  0  0  0  0  0  0  0  0  0
  130.1656  132.7881  159.3136 N   0  0  0  0  0  0  0  0  0  0  0  0
  129.8603  132.6965  160.2299 H   0  0  0  0  0  0  0  0  0  0  0  0
  130.8231  130.1857  159.7544 H   0  0  0  0  0  0  0  0  0  0  0  0
  131.2437  129.8118  158.0657 H   0  0  0  0  0  0  0  0  0  0  0  0
  132.1796  131.0278  158.9677 H   0  0  0  0  0  0  0  0  0  0  0  0
  130.0497  132.2979  156.2459 H   0  0  0  0  0  0  0  0  0  0  0  0
  131.7240  131.9235  156.7641 H   0  0  0  0  0  0  0  0  0  0  0  0
  131.2946  134.4857  156.9071 H   0  0  0  0  0  0  0  0  0  0  0  0
  130.9502  135.8816  159.0196 H   0  0  0  0  0  0  0  0  0  0  0  0
  128.2032  134.9276  160.0421 H   0  0  0  0  0  0  0  0  0  0  0  0
  128.6233  133.7030  161.2805 H   0  0  0  0  0  0  0  0  0  0  0  0
  126.3782  136.4839  162.5784 H   0  0  0  0  0  0  0  0  0  0  0  0
  128.9518  137.6207  162.7186 H   0  0  0  0  0  0  0  0  0  0  0  0
  128.4247  137.5603  161.0085 H   0  0  0  0  0  0  0  0  0  0  0  0
  130.3326  137.5600  159.5112 H   0  0  0  0  0  0  0  0  0  0  0  0
  133.2450  136.5971  159.6855 H   0  0  0  0  0  0  0  0  0  0  0  0
  135.3513  137.8308  159.9992 H   0  0  0  0  0  0  0  0  0  0  0  0
  133.1980  141.0882  161.7181 H   0  0  0  0  0  0  0  0  0  0  0  0
  131.0855  139.8658  161.4011 H   0  0  0  0  0  0  0  0  0  0  0  0
  1  2  1  0
  1 27  1  0
  1 28  1  0
  1 29  1  0
  2  3  1  6
  2 25  1  0
  2  4  1  0
  4  5  1  0
  4 30  1  0
  4 31  1  0
  5  6  1  0
  5 32  1  0
  6  7  1  0
  6 25  2  0
  7  8  1  0
  7 33  1  0
  8  9  1  1
  8 15  1  0
  8 10  1  0
 10 11  1  0
 10 34  1  0
 10 35  1  0
 11 12  1  1
 11 13  1  0
 11 14  1  0
 13 36  1  0
 14 15  1  0
 14 37  1  0
 14 38  1  0
 15 16  1  1
 15 17  1  0
 17 18  1  0
 17 39  1  0
 18 24  1  0
 18 19  2  0
 19 20  1  0
 19 40  1  0
 20 21  2  0
 20 41  1  0
 21 22  1  0
 21 23  1  0
 23 24  2  0
 23 42  1  0
 24 43  1  0
 25 26  1  0
M  CHG  1  25   1
M  END
>  <DOCK_score>  (1) 
-48.802475

>  <SMILES>  (1) 
C[C@@H]1CNC(N[C@@H]2C[C@H](O)C[C@@H]2Nc2ccc(I)cc2)=[NH+]1

$$$$
