Cc1cccc(N2CC[NH+]([C@@H](c3ccccc3)c3ccc(NCC4CC4(F)F)cc3)CC2)c1C
     RDKit          3D

 68 72  0  0  1  0  0  0  0  0999 V2000
  135.9309  137.3993  164.1068 C   0  0  0  0  0  0  0  0  0  0  0  0
  135.2999  137.3424  162.7396 C   0  0  0  0  0  0  0  0  0  0  0  0
  135.7730  138.1557  161.7259 C   0  0  0  0  0  0  0  0  0  0  0  0
  135.1966  138.1069  160.4702 C   0  0  0  0  0  0  0  0  0  0  0  0
  134.1458  137.2448  160.2238 C   0  0  0  0  0  0  0  0  0  0  0  0
  133.6682  136.4267  161.2395 C   0  0  0  0  0  0  0  0  0  0  0  0
  132.6056  135.5540  160.9940 N   0  0  0  0  0  0  0  0  0  0  0  0
  132.9752  134.5422  159.9941 C   0  0  0  0  0  0  0  0  0  0  0  0
  131.8076  133.5727  159.7981 C   0  0  0  0  0  0  0  0  0  0  0  0
  130.6227  134.3172  159.3517 N   0  0  0  0  0  0  0  0  0  0  0  0
  130.8294  134.7894  158.4844 H   0  0  0  0  0  0  0  0  0  0  0  0
  129.5070  133.3837  159.1463 C   0  0  1  0  0  0  0  0  0  0  0  0
  129.2838  132.8727  160.0829 H   0  0  0  0  0  0  0  0  0  0  0  0
  128.2912  134.1471  158.6883 C   0  0  0  0  0  0  0  0  0  0  0  0
  127.0265  133.6847  159.0008 C   0  0  0  0  0  0  0  0  0  0  0  0
  125.9113  134.3875  158.5842 C   0  0  0  0  0  0  0  0  0  0  0  0
  126.0605  135.5475  157.8475 C   0  0  0  0  0  0  0  0  0  0  0  0
  127.3252  136.0071  157.5306 C   0  0  0  0  0  0  0  0  0  0  0  0
  128.4405  135.3067  157.9507 C   0  0  0  0  0  0  0  0  0  0  0  0
  129.8872  132.3692  158.0989 C   0  0  0  0  0  0  0  0  0  0  0  0
  130.2148  132.7859  156.8217 C   0  0  0  0  0  0  0  0  0  0  0  0
  130.5692  131.8593  155.8608 C   0  0  0  0  0  0  0  0  0  0  0  0
  130.5854  130.5064  156.1756 C   0  0  0  0  0  0  0  0  0  0  0  0
  130.9382  129.5661  155.2048 N   0  0  0  0  0  0  0  0  0  0  0  0
  131.6975  129.9828  154.0231 C   0  0  0  0  0  0  0  0  0  0  0  0
  130.7282  130.3884  152.9111 C   0  0  1  0  0  0  0  0  0  0  0  0
  131.1718  130.1512  151.4661 C   0  0  0  0  0  0  0  0  0  0  0  0
  130.0882  129.2683  152.0885 C   0  0  0  0  0  0  0  0  0  0  0  0
  130.4341  127.9517  152.4109 F   0  0  0  0  0  0  0  0  0  0  0  0
  128.7721  129.4574  151.6535 F   0  0  0  0  0  0  0  0  0  0  0  0
  130.2503  130.0908  157.4580 C   0  0  0  0  0  0  0  0  0  0  0  0
  129.9024  131.0231  158.4155 C   0  0  0  0  0  0  0  0  0  0  0  0
  130.2510  135.3068  160.3715 C   0  0  0  0  0  0  0  0  0  0  0  0
  131.4059  136.2906  160.5722 C   0  0  0  0  0  0  0  0  0  0  0  0
  134.2461  136.4823  162.5018 C   0  0  0  0  0  0  0  0  0  0  0  0
  133.7271  135.6010  163.6084 C   0  0  0  0  0  0  0  0  0  0  0  0
  135.4174  138.1452  164.7133 H   0  0  0  0  0  0  0  0  0  0  0  0
  135.8497  136.4234  164.5854 H   0  0  0  0  0  0  0  0  0  0  0  0
  136.9823  137.6704  164.0107 H   0  0  0  0  0  0  0  0  0  0  0  0
  136.5943  138.8307  161.9158 H   0  0  0  0  0  0  0  0  0  0  0  0
  135.5684  138.7435  159.6808 H   0  0  0  0  0  0  0  0  0  0  0  0
  133.6960  137.2072  159.2427 H   0  0  0  0  0  0  0  0  0  0  0  0
  133.8505  133.9922  160.3397 H   0  0  0  0  0  0  0  0  0  0  0  0
  133.2038  135.0322  159.0476 H   0  0  0  0  0  0  0  0  0  0  0  0
  132.0745  132.8299  159.0464 H   0  0  0  0  0  0  0  0  0  0  0  0
  131.5885  133.0726  160.7415 H   0  0  0  0  0  0  0  0  0  0  0  0
  126.9098  132.7764  159.5731 H   0  0  0  0  0  0  0  0  0  0  0  0
  124.9232  134.0286  158.8322 H   0  0  0  0  0  0  0  0  0  0  0  0
  125.1892  136.0951  157.5199 H   0  0  0  0  0  0  0  0  0  0  0  0
  127.4419  136.9134  156.9549 H   0  0  0  0  0  0  0  0  0  0  0  0
  129.4285  135.6657  157.7030 H   0  0  0  0  0  0  0  0  0  0  0  0
  130.1974  133.8375  156.5763 H   0  0  0  0  0  0  0  0  0  0  0  0
  130.8292  132.1858  154.8647 H   0  0  0  0  0  0  0  0  0  0  0  0
  130.6806  128.6373  155.3131 H   0  0  0  0  0  0  0  0  0  0  0  0
  132.3319  130.8312  154.2797 H   0  0  0  0  0  0  0  0  0  0  0  0
  132.3186  129.1553  153.6801 H   0  0  0  0  0  0  0  0  0  0  0  0
  130.1242  131.2729  153.1134 H   0  0  0  0  0  0  0  0  0  0  0  0
  130.8592  130.8793  150.7178 H   0  0  0  0  0  0  0  0  0  0  0  0
  132.1541  129.7061  151.3079 H   0  0  0  0  0  0  0  0  0  0  0  0
  130.2616  129.0396  157.7058 H   0  0  0  0  0  0  0  0  0  0  0  0
  129.6420  130.7007  159.4128 H   0  0  0  0  0  0  0  0  0  0  0  0
  130.0399  134.7977  161.3120 H   0  0  0  0  0  0  0  0  0  0  0  0
  129.3639  135.8493  160.0449 H   0  0  0  0  0  0  0  0  0  0  0  0
  131.1361  137.0163  161.3396 H   0  0  0  0  0  0  0  0  0  0  0  0
  131.6083  136.8098  159.6353 H   0  0  0  0  0  0  0  0  0  0  0  0
  134.3299  134.6944  163.6638 H   0  0  0  0  0  0  0  0  0  0  0  0
  133.7865  136.1353  164.5566 H   0  0  0  0  0  0  0  0  0  0  0  0
  132.6895  135.3355  163.4053 H   0  0  0  0  0  0  0  0  0  0  0  0
  1  2  1  0
  1 37  1  0
  1 38  1  0
  1 39  1  0
  2 35  2  0
  2  3  1  0
  3  4  2  0
  3 40  1  0
  4  5  1  0
  4 41  1  0
  5  6  2  0
  5 42  1  0
  6  7  1  0
  6 35  1  0
  7 34  1  0
  7  8  1  0
  8  9  1  0
  8 43  1  0
  8 44  1  0
  9 10  1  0
  9 45  1  0
  9 46  1  0
 10 11  1  0
 10 12  1  0
 10 33  1  0
 12 13  1  1
 12 14  1  0
 12 20  1  0
 14 19  1  0
 14 15  2  0
 15 16  1  0
 15 47  1  0
 16 17  2  0
 16 48  1  0
 17 18  1  0
 17 49  1  0
 18 19  2  0
 18 50  1  0
 19 51  1  0
 20 32  1  0
 20 21  2  0
 21 22  1  0
 21 52  1  0
 22 23  2  0
 22 53  1  0
 23 24  1  0
 23 31  1  0
 24 25  1  0
 24 54  1  0
 25 26  1  0
 25 55  1  0
 25 56  1  0
 26 28  1  0
 26 27  1  0
 26 57  1  6
 27 28  1  0
 27 58  1  0
 27 59  1  0
 28 29  1  0
 28 30  1  0
 31 32  2  0
 31 60  1  0
 32 61  1  0
 33 34  1  0
 33 62  1  0
 33 63  1  0
 34 64  1  0
 34 65  1  0
 35 36  1  0
 36 66  1  0
 36 67  1  0
 36 68  1  0
M  CHG  1  10   1
M  END
>  <DOCK_score>  (1) 
-57.027412

>  <SMILES>  (1) 
Cc1cccc(N2CC[NH+]([C@@H](c3ccccc3)c3ccc(NCC4CC4(F)F)cc3)CC2)c1C

$$$$
