Cc1c[nH]c(Nc2cc(SC3CC4C(CBr)C=CC[C@H]4C3)c(O)cc2F)[nH+]1
     RDKit          3D

 51 54  0  0  1  0  0  0  0  0999 V2000
  130.6434  132.0047  155.2545 C   0  0  0  0  0  0  0  0  0  0  0  0
  129.9866  132.7805  156.3671 C   0  0  0  0  0  0  0  0  0  0  0  0
  129.0286  132.3191  157.1892 C   0  0  0  0  0  0  0  0  0  0  0  0
  128.7130  133.3436  158.0523 N   0  0  0  0  0  0  0  0  0  0  0  0
  128.0515  133.3174  158.7614 H   0  0  0  0  0  0  0  0  0  0  0  0
  129.5003  134.4020  157.7187 C   0  0  0  0  0  0  0  0  0  0  0  0
  129.5007  135.6397  158.3412 N   0  0  0  0  0  0  0  0  0  0  0  0
  128.6354  135.8836  159.4161 C   0  0  0  0  0  0  0  0  0  0  0  0
  129.1513  136.2247  160.6587 C   0  0  0  0  0  0  0  0  0  0  0  0
  128.2931  136.4705  161.7204 C   0  0  0  0  0  0  0  0  0  0  0  0
  128.9447  136.9097  163.2976 S   0  0  0  0  0  0  0  0  0  0  0  0
  129.0300  138.7196  163.2143 C   0  0  1  0  0  0  0  0  0  0  0  0
  127.6505  139.3321  163.5531 C   0  0  0  0  0  0  0  0  0  0  0  0
  127.8608  140.1361  164.8358 C   0  0  2  0  0  0  0  0  0  0  0  0
  127.0535  141.4212  164.9283 C   0  0  1  0  0  0  0  0  0  0  0  0
  125.5819  141.0914  165.1861 C   0  0  0  0  0  0  0  0  0  0  0  0
  124.7200  140.5760  163.4961 Br  0  0  0  0  0  0  0  0  0  0  0  0
  127.6054  142.2308  166.0777 C   0  0  0  0  0  0  0  0  0  0  0  0
  128.7719  142.0406  166.6122 C   0  0  0  0  0  0  0  0  0  0  0  0
  129.7584  140.9927  166.1547 C   0  0  0  0  0  0  0  0  0  0  0  0
  129.3573  140.5565  164.7538 C   0  0  1  0  0  0  0  0  0  0  0  0
  129.5014  141.3651  164.0371 H   0  0  0  0  0  0  0  0  0  0  0  0
  130.0223  139.2552  164.2794 C   0  0  0  0  0  0  0  0  0  0  0  0
  126.9156  136.3642  161.5397 C   0  0  0  0  0  0  0  0  0  0  0  0
  126.0724  136.6005  162.5815 O   0  0  0  0  0  0  0  0  0  0  0  0
  126.4045  136.0186  160.2999 C   0  0  0  0  0  0  0  0  0  0  0  0
  127.2606  135.7785  159.2393 C   0  0  0  0  0  0  0  0  0  0  0  0
  126.7596  135.4410  158.0308 F   0  0  0  0  0  0  0  0  0  0  0  0
  130.2590  134.0514  156.7071 N   0  0  0  0  0  0  0  0  0  0  0  0
  130.9140  134.6204  156.2732 H   0  0  0  0  0  0  0  0  0  0  0  0
  130.0816  132.1472  154.3314 H   0  0  0  0  0  0  0  0  0  0  0  0
  131.6645  132.3604  155.1171 H   0  0  0  0  0  0  0  0  0  0  0  0
  130.6590  130.9452  155.5104 H   0  0  0  0  0  0  0  0  0  0  0  0
  128.5903  131.3322  157.1755 H   0  0  0  0  0  0  0  0  0  0  0  0
  130.1000  136.3374  158.0331 H   0  0  0  0  0  0  0  0  0  0  0  0
  130.2194  136.3025  160.7977 H   0  0  0  0  0  0  0  0  0  0  0  0
  129.3442  139.0336  162.2190 H   0  0  0  0  0  0  0  0  0  0  0  0
  127.3213  139.9880  162.7473 H   0  0  0  0  0  0  0  0  0  0  0  0
  126.9182  138.5422  163.7197 H   0  0  0  0  0  0  0  0  0  0  0  0
  127.6772  139.5104  165.7093 H   0  0  0  0  0  0  0  0  0  0  0  0
  127.1491  141.9849  164.0003 H   0  0  0  0  0  0  0  0  0  0  0  0
  125.5133  140.2666  165.8955 H   0  0  0  0  0  0  0  0  0  0  0  0
  125.0800  141.9672  165.5977 H   0  0  0  0  0  0  0  0  0  0  0  0
  126.9882  143.0202  166.4809 H   0  0  0  0  0  0  0  0  0  0  0  0
  129.0567  142.6740  167.4392 H   0  0  0  0  0  0  0  0  0  0  0  0
  130.7632  141.4148  166.1366 H   0  0  0  0  0  0  0  0  0  0  0  0
  129.7285  140.1378  166.8302 H   0  0  0  0  0  0  0  0  0  0  0  0
  130.1189  138.5497  165.1045 H   0  0  0  0  0  0  0  0  0  0  0  0
  130.9944  139.4602  163.8310 H   0  0  0  0  0  0  0  0  0  0  0  0
  125.1363  136.5024  162.3600 H   0  0  0  0  0  0  0  0  0  0  0  0
  125.3367  135.9361  160.1606 H   0  0  0  0  0  0  0  0  0  0  0  0
  1  2  1  0
  1 31  1  0
  1 32  1  0
  1 33  1  0
  2 29  1  0
  2  3  2  0
  3  4  1  0
  3 34  1  0
  4  5  1  0
  4  6  1  0
  6  7  1  0
  6 29  2  0
  7  8  1  0
  7 35  1  0
  8 27  1  0
  8  9  2  0
  9 10  1  0
  9 36  1  0
 10 11  1  0
 10 24  2  0
 11 12  1  0
 12 23  1  0
 12 13  1  0
 12 37  1  6
 13 14  1  0
 13 38  1  0
 13 39  1  0
 14 21  1  0
 14 15  1  0
 14 40  1  1
 15 16  1  0
 15 18  1  0
 15 41  1  6
 16 17  1  0
 16 42  1  0
 16 43  1  0
 18 19  2  0
 18 44  1  0
 19 20  1  0
 19 45  1  0
 20 21  1  0
 20 46  1  0
 20 47  1  0
 21 22  1  6
 21 23  1  0
 23 48  1  0
 23 49  1  0
 24 25  1  0
 24 26  1  0
 25 50  1  0
 26 27  2  0
 26 51  1  0
 27 28  1  0
 29 30  1  0
M  CHG  1  29   1
M  END
>  <DOCK_score>  (1) 
-52.772648

>  <SMILES>  (1) 
Cc1c[nH]c(Nc2cc(SC3CC4C(CBr)C=CC[C@H]4C3)c(O)cc2F)[nH+]1

$$$$
