c1ccc2c(Nc3ccc(-c4n[nH]cc4C[NH2+]C[C@H]4CC5CC4C5)o3)c[nH]c2c1
     RDKit          3D

 55 60  0  0  1  0  0  0  0  0999 V2000
  127.2384  141.1506  164.7222 C   0  0  0  0  0  0  0  0  0  0  0  0
  126.1971  140.9524  163.8252 C   0  0  0  0  0  0  0  0  0  0  0  0
  126.0467  139.7514  163.1913 C   0  0  0  0  0  0  0  0  0  0  0  0
  126.9535  138.7191  163.4374 C   0  0  0  0  0  0  0  0  0  0  0  0
  127.0905  137.3445  162.9411 C   0  0  0  0  0  0  0  0  0  0  0  0
  126.2511  136.7019  162.0141 N   0  0  0  0  0  0  0  0  0  0  0  0
  126.7647  135.7202  161.1762 C   0  0  0  0  0  0  0  0  0  0  0  0
  126.0742  134.6649  160.6750 C   0  0  0  0  0  0  0  0  0  0  0  0
  126.9721  133.9269  159.8794 C   0  0  0  0  0  0  0  0  0  0  0  0
  128.1682  134.5702  159.9350 C   0  0  0  0  0  0  0  0  0  0  0  0
  129.4080  134.1528  159.2482 C   0  0  0  0  0  0  0  0  0  0  0  0
  129.5500  133.0905  158.4801 N   0  0  0  0  0  0  0  0  0  0  0  0
  130.8738  133.0583  158.0233 N   0  0  0  0  0  0  0  0  0  0  0  0
  131.2574  132.3865  157.4382 H   0  0  0  0  0  0  0  0  0  0  0  0
  131.5252  134.1212  158.5432 C   0  0  0  0  0  0  0  0  0  0  0  0
  130.6517  134.8167  159.3025 C   0  0  0  0  0  0  0  0  0  0  0  0
  130.9519  136.0777  160.0711 C   0  0  0  0  0  0  0  0  0  0  0  0
  132.3591  136.4492  159.8719 N   0  0  0  0  0  0  0  0  0  0  0  0
  132.9538  135.7042  160.2027 H   0  0  0  0  0  0  0  0  0  0  0  0
  132.5301  136.6050  158.8899 H   0  0  0  0  0  0  0  0  0  0  0  0
  132.6517  137.6785  160.6210 C   0  0  0  0  0  0  0  0  0  0  0  0
  134.1174  138.0654  160.4137 C   0  0  1  0  0  0  0  0  0  0  0  0
  134.7632  137.1873  160.4222 H   0  0  0  0  0  0  0  0  0  0  0  0
  134.3080  138.9007  159.1114 C   0  0  0  0  0  0  0  0  0  0  0  0
  134.8347  140.2337  159.7450 C   0  0  2  0  0  0  0  0  0  0  0  0
  135.8361  139.8487  160.8760 C   0  0  0  0  0  0  0  0  0  0  0  0
  134.5836  139.1299  161.4649 C   0  0  1  0  0  0  0  0  0  0  0  0
  133.8962  140.4273  160.9633 C   0  0  0  0  0  0  0  0  0  0  0  0
  128.0279  135.6587  160.7204 O   0  0  0  0  0  0  0  0  0  0  0  0
  128.1731  136.8160  163.5432 C   0  0  0  0  0  0  0  0  0  0  0  0
  128.7372  137.7461  164.3846 N   0  0  0  0  0  0  0  0  0  0  0  0
  129.5273  137.5994  164.9279 H   0  0  0  0  0  0  0  0  0  0  0  0
  128.0139  138.9165  164.3402 C   0  0  0  0  0  0  0  0  0  0  0  0
  128.1447  140.1459  164.9795 C   0  0  0  0  0  0  0  0  0  0  0  0
  127.3416  142.1038  165.2193 H   0  0  0  0  0  0  0  0  0  0  0  0
  125.4981  141.7522  163.6306 H   0  0  0  0  0  0  0  0  0  0  0  0
  125.2315  139.6029  162.4987 H   0  0  0  0  0  0  0  0  0  0  0  0
  125.3135  136.9441  161.9597 H   0  0  0  0  0  0  0  0  0  0  0  0
  125.0340  134.4349  160.8522 H   0  0  0  0  0  0  0  0  0  0  0  0
  126.7524  133.0229  159.3309 H   0  0  0  0  0  0  0  0  0  0  0  0
  132.5630  134.3714  158.3798 H   0  0  0  0  0  0  0  0  0  0  0  0
  130.3097  136.8825  159.7137 H   0  0  0  0  0  0  0  0  0  0  0  0
  130.7672  135.9092  161.1319 H   0  0  0  0  0  0  0  0  0  0  0  0
  132.0094  138.4833  160.2636 H   0  0  0  0  0  0  0  0  0  0  0  0
  132.4671  137.5101  161.6820 H   0  0  0  0  0  0  0  0  0  0  0  0
  135.0519  138.4504  158.4541 H   0  0  0  0  0  0  0  0  0  0  0  0
  133.3615  139.0516  158.5923 H   0  0  0  0  0  0  0  0  0  0  0  0
  135.0533  141.0667  159.0769 H   0  0  0  0  0  0  0  0  0  0  0  0
  136.6331  139.1753  160.5608 H   0  0  0  0  0  0  0  0  0  0  0  0
  136.1906  140.6919  161.4689 H   0  0  0  0  0  0  0  0  0  0  0  0
  134.5501  138.8568  162.5196 H   0  0  0  0  0  0  0  0  0  0  0  0
  134.1172  141.3107  161.5623 H   0  0  0  0  0  0  0  0  0  0  0  0
  132.8367  140.3125  160.7346 H   0  0  0  0  0  0  0  0  0  0  0  0
  128.5425  135.8131  163.3885 H   0  0  0  0  0  0  0  0  0  0  0  0
  128.9539  140.3113  165.6753 H   0  0  0  0  0  0  0  0  0  0  0  0
  1 34  2  0
  1  2  1  0
  1 35  1  0
  2  3  2  0
  2 36  1  0
  3  4  1  0
  3 37  1  0
  4 33  2  0
  4  5  1  0
  5  6  1  0
  5 30  2  0
  6  7  1  0
  6 38  1  0
  7 29  1  0
  7  8  2  0
  8  9  1  0
  8 39  1  0
  9 10  2  0
  9 40  1  0
 10 11  1  0
 10 29  1  0
 11 16  1  0
 11 12  2  0
 12 13  1  0
 13 14  1  0
 13 15  1  0
 15 16  2  0
 15 41  1  0
 16 17  1  0
 17 18  1  0
 17 42  1  0
 17 43  1  0
 18 19  1  0
 18 20  1  0
 18 21  1  0
 21 22  1  0
 21 44  1  0
 21 45  1  0
 22 23  1  6
 22 27  1  0
 22 24  1  0
 24 25  1  0
 24 46  1  0
 24 47  1  0
 25 28  1  0
 25 26  1  0
 25 48  1  6
 26 27  1  0
 26 49  1  0
 26 50  1  0
 27 28  1  0
 27 51  1  1
 28 52  1  0
 28 53  1  0
 30 31  1  0
 30 54  1  0
 31 32  1  0
 31 33  1  0
 33 34  1  0
 34 55  1  0
M  CHG  1  18   1
M  END
>  <DOCK_score>  (1) 
-48.951195

>  <SMILES>  (1) 
c1ccc2c(Nc3ccc(-c4n[nH]cc4C[NH2+]C[C@H]4CC5CC4C5)o3)c[nH]c2c1

$$$$
