Nc1ccc(-c2c[nH]c(NCc3cn(-c4ccccc4)nc3-c3ccc(F)cc3)[nH+]2)cc1
     RDKit          3D

 54 58  0  0  1  0  0  0  0  0999 V2000
  131.0413  130.0142  152.9181 N   0  0  0  0  0  0  0  0  0  0  0  0
  130.9839  130.7180  154.1234 C   0  0  0  0  0  0  0  0  0  0  0  0
  130.6154  132.0584  154.1278 C   0  0  0  0  0  0  0  0  0  0  0  0
  130.5584  132.7548  155.3165 C   0  0  0  0  0  0  0  0  0  0  0  0
  130.8705  132.1137  156.5144 C   0  0  0  0  0  0  0  0  0  0  0  0
  130.8098  132.8609  157.7946 C   0  0  0  0  0  0  0  0  0  0  0  0
  130.5199  132.3371  159.0112 C   0  0  0  0  0  0  0  0  0  0  0  0
  130.5787  133.3715  159.9149 N   0  0  0  0  0  0  0  0  0  0  0  0
  130.4219  133.3097  160.8701 H   0  0  0  0  0  0  0  0  0  0  0  0
  130.8940  134.4988  159.2210 C   0  0  0  0  0  0  0  0  0  0  0  0
  131.0468  135.7633  159.7635 N   0  0  0  0  0  0  0  0  0  0  0  0
  131.3041  135.9191  161.1973 C   0  0  0  0  0  0  0  0  0  0  0  0
  130.7253  137.2269  161.6724 C   0  0  0  0  0  0  0  0  0  0  0  0
  129.4770  137.4160  162.1527 C   0  0  0  0  0  0  0  0  0  0  0  0
  129.3464  138.7312  162.4673 N   0  0  0  0  0  0  0  0  0  0  0  0
  128.2008  139.3420  162.9939 C   0  0  0  0  0  0  0  0  0  0  0  0
  128.2028  140.7027  163.2709 C   0  0  0  0  0  0  0  0  0  0  0  0
  127.0717  141.3021  163.7896 C   0  0  0  0  0  0  0  0  0  0  0  0
  125.9380  140.5485  164.0329 C   0  0  0  0  0  0  0  0  0  0  0  0
  125.9329  139.1933  163.7582 C   0  0  0  0  0  0  0  0  0  0  0  0
  127.0609  138.5881  163.2395 C   0  0  0  0  0  0  0  0  0  0  0  0
  130.5602  139.3683  162.1786 N   0  0  0  0  0  0  0  0  0  0  0  0
  131.3926  138.4675  161.7003 C   0  0  0  0  0  0  0  0  0  0  0  0
  132.7894  138.7156  161.2655 C   0  0  0  0  0  0  0  0  0  0  0  0
  133.7239  139.2174  162.1695 C   0  0  0  0  0  0  0  0  0  0  0  0
  135.0230  139.4417  161.7624 C   0  0  0  0  0  0  0  0  0  0  0  0
  135.3961  139.1793  160.4541 C   0  0  0  0  0  0  0  0  0  0  0  0
  136.6679  139.4057  160.0583 F   0  0  0  0  0  0  0  0  0  0  0  0
  134.4691  138.6853  159.5508 C   0  0  0  0  0  0  0  0  0  0  0  0
  133.1693  138.4528  159.9508 C   0  0  0  0  0  0  0  0  0  0  0  0
  131.0347  134.1889  157.9552 N   0  0  0  0  0  0  0  0  0  0  0  0
  131.2632  134.8103  157.2461 H   0  0  0  0  0  0  0  0  0  0  0  0
  131.2450  130.7709  156.5068 C   0  0  0  0  0  0  0  0  0  0  0  0
  131.2950  130.0769  155.3165 C   0  0  0  0  0  0  0  0  0  0  0  0
  130.8242  130.4617  152.0846 H   0  0  0  0  0  0  0  0  0  0  0  0
  131.2987  129.0796  152.9138 H   0  0  0  0  0  0  0  0  0  0  0  0
  130.3737  132.5547  153.1995 H   0  0  0  0  0  0  0  0  0  0  0  0
  130.2719  133.7961  155.3197 H   0  0  0  0  0  0  0  0  0  0  0  0
  130.2912  131.3043  159.2293 H   0  0  0  0  0  0  0  0  0  0  0  0
  130.9836  136.5461  159.1944 H   0  0  0  0  0  0  0  0  0  0  0  0
  132.3792  135.9112  161.3764 H   0  0  0  0  0  0  0  0  0  0  0  0
  130.8390  135.0969  161.7413 H   0  0  0  0  0  0  0  0  0  0  0  0
  128.7168  136.6570  162.2640 H   0  0  0  0  0  0  0  0  0  0  0  0
  129.0876  141.2918  163.0807 H   0  0  0  0  0  0  0  0  0  0  0  0
  127.0741  142.3594  164.0095 H   0  0  0  0  0  0  0  0  0  0  0  0
  125.0547  141.0194  164.4384 H   0  0  0  0  0  0  0  0  0  0  0  0
  125.0459  138.6075  163.9490 H   0  0  0  0  0  0  0  0  0  0  0  0
  127.0561  137.5297  163.0247 H   0  0  0  0  0  0  0  0  0  0  0  0
  133.4326  139.4263  163.1882 H   0  0  0  0  0  0  0  0  0  0  0  0
  135.7489  139.8264  162.4634 H   0  0  0  0  0  0  0  0  0  0  0  0
  134.7643  138.4823  158.5320 H   0  0  0  0  0  0  0  0  0  0  0  0
  132.4473  138.0672  159.2462 H   0  0  0  0  0  0  0  0  0  0  0  0
  131.4919  130.2736  157.4332 H   0  0  0  0  0  0  0  0  0  0  0  0
  131.5809  129.0354  155.3106 H   0  0  0  0  0  0  0  0  0  0  0  0
  1  2  1  0
  1 35  1  0
  1 36  1  0
  2 34  2  0
  2  3  1  0
  3  4  2  0
  3 37  1  0
  4  5  1  0
  4 38  1  0
  5  6  1  0
  5 33  2  0
  6 31  1  0
  6  7  2  0
  7  8  1  0
  7 39  1  0
  8  9  1  0
  8 10  1  0
 10 11  1  0
 10 31  2  0
 11 12  1  0
 11 40  1  0
 12 13  1  0
 12 41  1  0
 12 42  1  0
 13 23  1  0
 13 14  2  0
 14 15  1  0
 14 43  1  0
 15 16  1  0
 15 22  1  0
 16 21  1  0
 16 17  2  0
 17 18  1  0
 17 44  1  0
 18 19  2  0
 18 45  1  0
 19 20  1  0
 19 46  1  0
 20 21  2  0
 20 47  1  0
 21 48  1  0
 22 23  2  0
 23 24  1  0
 24 30  1  0
 24 25  2  0
 25 26  1  0
 25 49  1  0
 26 27  2  0
 26 50  1  0
 27 28  1  0
 27 29  1  0
 29 30  2  0
 29 51  1  0
 30 52  1  0
 31 32  1  0
 33 34  1  0
 33 53  1  0
 34 54  1  0
M  CHG  1  31   1
M  END
>  <DOCK_score>  (1) 
-58.812138

>  <SMILES>  (1) 
Nc1ccc(-c2c[nH]c(NCc3cn(-c4ccccc4)nc3-c3ccc(F)cc3)[nH+]2)cc1

$$$$
