Cc1n[nH]cc1C[NH2+]Cc1c[nH]nc1-c1ccc(NC2=CC(=O)CC2)o1
     RDKit          3D

 47 50  0  0  0  0  0  0  0  0999 V2000
  133.7485  140.6919  161.8695 C   0  0  0  0  0  0  0  0  0  0  0  0
  134.1283  140.0313  160.5694 C   0  0  0  0  0  0  0  0  0  0  0  0
  134.9567  140.5119  159.6781 N   0  0  0  0  0  0  0  0  0  0  0  0
  135.0376  139.5988  158.6187 N   0  0  0  0  0  0  0  0  0  0  0  0
  135.5784  139.6983  157.8196 H   0  0  0  0  0  0  0  0  0  0  0  0
  134.2344  138.5539  158.9086 C   0  0  0  0  0  0  0  0  0  0  0  0
  133.6558  138.7987  160.1072 C   0  0  0  0  0  0  0  0  0  0  0  0
  132.6799  137.8990  160.8208 C   0  0  0  0  0  0  0  0  0  0  0  0
  132.4368  136.6988  160.0093 N   0  0  0  0  0  0  0  0  0  0  0  0
  133.3062  136.2067  159.8677 H   0  0  0  0  0  0  0  0  0  0  0  0
  132.0538  136.9689  159.1158 H   0  0  0  0  0  0  0  0  0  0  0  0
  131.4856  135.8218  160.7049 C   0  0  0  0  0  0  0  0  0  0  0  0
  131.2362  134.5906  159.8724 C   0  0  0  0  0  0  0  0  0  0  0  0
  132.1754  133.8532  159.2423 C   0  0  0  0  0  0  0  0  0  0  0  0
  131.5529  132.8355  158.6089 N   0  0  0  0  0  0  0  0  0  0  0  0
  131.9837  132.1471  158.0783 H   0  0  0  0  0  0  0  0  0  0  0  0
  130.1771  132.9494  158.8457 N   0  0  0  0  0  0  0  0  0  0  0  0
  129.9793  134.0070  159.6079 C   0  0  0  0  0  0  0  0  0  0  0  0
  128.6734  134.4940  160.0984 C   0  0  0  0  0  0  0  0  0  0  0  0
  127.4637  133.9312  159.8357 C   0  0  0  0  0  0  0  0  0  0  0  0
  126.4978  134.7120  160.4987 C   0  0  0  0  0  0  0  0  0  0  0  0
  127.1619  135.7152  161.1255 C   0  0  0  0  0  0  0  0  0  0  0  0
  126.5814  136.7173  161.8942 N   0  0  0  0  0  0  0  0  0  0  0  0
  127.3639  137.6717  162.4733 C   0  0  0  0  0  0  0  0  0  0  0  0
  126.9129  138.6905  163.2317 C   0  0  0  0  0  0  0  0  0  0  0  0
  127.9330  139.5180  163.7009 C   0  0  0  0  0  0  0  0  0  0  0  0
  127.7848  140.4983  164.4041 O   0  0  0  0  0  0  0  0  0  0  0  0
  129.2542  138.9943  163.1828 C   0  0  0  0  0  0  0  0  0  0  0  0
  128.8679  137.7526  162.3577 C   0  0  0  0  0  0  0  0  0  0  0  0
  128.4762  135.5764  160.8787 O   0  0  0  0  0  0  0  0  0  0  0  0
  134.4376  140.3758  162.6527 H   0  0  0  0  0  0  0  0  0  0  0  0
  133.8000  141.7746  161.7556 H   0  0  0  0  0  0  0  0  0  0  0  0
  132.7330  140.4031  162.1409 H   0  0  0  0  0  0  0  0  0  0  0  0
  134.0792  137.6801  158.2932 H   0  0  0  0  0  0  0  0  0  0  0  0
  131.7407  138.4305  160.9739 H   0  0  0  0  0  0  0  0  0  0  0  0
  133.0937  137.6072  161.7861 H   0  0  0  0  0  0  0  0  0  0  0  0
  131.8993  135.5300  161.6702 H   0  0  0  0  0  0  0  0  0  0  0  0
  130.5464  136.3533  160.8579 H   0  0  0  0  0  0  0  0  0  0  0  0
  133.2387  134.0425  159.2459 H   0  0  0  0  0  0  0  0  0  0  0  0
  127.2794  133.0527  159.2350 H   0  0  0  0  0  0  0  0  0  0  0  0
  125.4306  134.5458  160.5044 H   0  0  0  0  0  0  0  0  0  0  0  0
  125.6197  136.7376  162.0185 H   0  0  0  0  0  0  0  0  0  0  0  0
  125.8684  138.8484  163.4558 H   0  0  0  0  0  0  0  0  0  0  0  0
  129.9054  138.7149  164.0110 H   0  0  0  0  0  0  0  0  0  0  0  0
  129.7381  139.7380  162.5496 H   0  0  0  0  0  0  0  0  0  0  0  0
  129.3300  136.8587  162.7768 H   0  0  0  0  0  0  0  0  0  0  0  0
  129.1629  137.8792  161.3160 H   0  0  0  0  0  0  0  0  0  0  0  0
  1  2  1  0
  1 31  1  0
  1 32  1  0
  1 33  1  0
  2  7  1  0
  2  3  2  0
  3  4  1  0
  4  5  1  0
  4  6  1  0
  6  7  2  0
  6 34  1  0
  7  8  1  0
  8  9  1  0
  8 35  1  0
  8 36  1  0
  9 10  1  0
  9 11  1  0
  9 12  1  0
 12 13  1  0
 12 37  1  0
 12 38  1  0
 13 18  1  0
 13 14  2  0
 14 15  1  0
 14 39  1  0
 15 16  1  0
 15 17  1  0
 17 18  2  0
 18 19  1  0
 19 30  1  0
 19 20  2  0
 20 21  1  0
 20 40  1  0
 21 22  2  0
 21 41  1  0
 22 23  1  0
 22 30  1  0
 23 24  1  0
 23 42  1  0
 24 29  1  0
 24 25  2  0
 25 26  1  0
 25 43  1  0
 26 27  2  0
 26 28  1  0
 28 29  1  0
 28 44  1  0
 28 45  1  0
 29 46  1  0
 29 47  1  0
M  CHG  1   9   1
M  END
>  <DOCK_score>  (1) 
-46.62748

>  <SMILES>  (1) 
Cc1n[nH]cc1C[NH2+]Cc1c[nH]nc1-c1ccc(NC2=CC(=O)CC2)o1

$$$$
