C1=C(C[NH2+]Cc2c[nH]nc2-c2ccc(NCc3cccnc3)o2)CCC1
     RDKit          3D

 50 53  0  0  0  0  0  0  0  0999 V2000
  134.7819  138.2851  160.2609 C   0  0  0  0  0  0  0  0  0  0  0  0
  133.4877  138.3162  160.0952 C   0  0  0  0  0  0  0  0  0  0  0  0
  132.5169  137.3960  160.7894 C   0  0  0  0  0  0  0  0  0  0  0  0
  132.3132  136.1925  159.9722 N   0  0  0  0  0  0  0  0  0  0  0  0
  133.1948  135.7182  159.8463 H   0  0  0  0  0  0  0  0  0  0  0  0
  131.9415  136.4561  159.0719 H   0  0  0  0  0  0  0  0  0  0  0  0
  131.3670  135.2954  160.6490 C   0  0  0  0  0  0  0  0  0  0  0  0
  131.1580  134.0607  159.8106 C   0  0  0  0  0  0  0  0  0  0  0  0
  132.1244  133.3382  159.2043 C   0  0  0  0  0  0  0  0  0  0  0  0
  131.5332  132.3164  158.5481 N   0  0  0  0  0  0  0  0  0  0  0  0
  131.9873  131.6396  158.0222 H   0  0  0  0  0  0  0  0  0  0  0  0
  130.1510  132.4032  158.7579 N   0  0  0  0  0  0  0  0  0  0  0  0
  129.9183  133.4523  159.5220 C   0  0  0  0  0  0  0  0  0  0  0  0
  128.5939  133.9127  159.9878 C   0  0  0  0  0  0  0  0  0  0  0  0
  127.4020  133.3228  159.7073 C   0  0  0  0  0  0  0  0  0  0  0  0
  126.4078  134.0839  160.3532 C   0  0  0  0  0  0  0  0  0  0  0  0
  127.0395  135.1026  160.9881 C   0  0  0  0  0  0  0  0  0  0  0  0
  126.4249  136.0923  161.7464 N   0  0  0  0  0  0  0  0  0  0  0  0
  127.2327  137.1378  162.3794 C   0  0  0  0  0  0  0  0  0  0  0  0
  128.2145  136.5061  163.3323 C   0  0  0  0  0  0  0  0  0  0  0  0
  127.8064  135.5028  164.1982 C   0  0  0  0  0  0  0  0  0  0  0  0
  128.7429  134.9539  165.0604 C   0  0  0  0  0  0  0  0  0  0  0  0
  130.0458  135.4139  165.0210 C   0  0  0  0  0  0  0  0  0  0  0  0
  130.3994  136.3667  164.1809 N   0  0  0  0  0  0  0  0  0  0  0  0
  129.5343  136.9155  163.3504 C   0  0  0  0  0  0  0  0  0  0  0  0
  128.3600  134.9909  160.7652 O   0  0  0  0  0  0  0  0  0  0  0  0
  133.0896  139.4005  159.1208 C   0  0  0  0  0  0  0  0  0  0  0  0
  134.3982  139.7639  158.3812 C   0  0  0  0  0  0  0  0  0  0  0  0
  135.4638  139.3372  159.4175 C   0  0  0  0  0  0  0  0  0  0  0  0
  135.2979  137.5965  160.9135 H   0  0  0  0  0  0  0  0  0  0  0  0
  131.5645  137.9083  160.9255 H   0  0  0  0  0  0  0  0  0  0  0  0
  132.9185  137.1112  161.7620 H   0  0  0  0  0  0  0  0  0  0  0  0
  130.4146  135.8077  160.7852 H   0  0  0  0  0  0  0  0  0  0  0  0
  131.7685  135.0105  161.6215 H   0  0  0  0  0  0  0  0  0  0  0  0
  133.1841  133.5440  159.2351 H   0  0  0  0  0  0  0  0  0  0  0  0
  127.2472  132.4379  159.1078 H   0  0  0  0  0  0  0  0  0  0  0  0
  125.3448  133.8934  160.3435 H   0  0  0  0  0  0  0  0  0  0  0  0
  125.4611  136.0907  161.8565 H   0  0  0  0  0  0  0  0  0  0  0  0
  126.5812  137.8185  162.9274 H   0  0  0  0  0  0  0  0  0  0  0  0
  127.7750  137.6918  161.6133 H   0  0  0  0  0  0  0  0  0  0  0  0
  126.7822  135.1599  164.2036 H   0  0  0  0  0  0  0  0  0  0  0  0
  128.4593  134.1735  165.7510 H   0  0  0  0  0  0  0  0  0  0  0  0
  130.7825  134.9884  165.6862 H   0  0  0  0  0  0  0  0  0  0  0  0
  129.8610  137.6936  162.6766 H   0  0  0  0  0  0  0  0  0  0  0  0
  132.3474  139.0246  158.4167 H   0  0  0  0  0  0  0  0  0  0  0  0
  132.7023  140.2679  159.6553 H   0  0  0  0  0  0  0  0  0  0  0  0
  134.4982  139.1916  157.4589 H   0  0  0  0  0  0  0  0  0  0  0  0
  134.4515  140.8343  158.1832 H   0  0  0  0  0  0  0  0  0  0  0  0
  136.3357  138.9182  158.9151 H   0  0  0  0  0  0  0  0  0  0  0  0
  135.7529  140.1866  160.0365 H   0  0  0  0  0  0  0  0  0  0  0  0
  1 29  1  0
  1  2  2  0
  1 30  1  0
  2  3  1  0
  2 27  1  0
  3  4  1  0
  3 31  1  0
  3 32  1  0
  4  5  1  0
  4  6  1  0
  4  7  1  0
  7  8  1  0
  7 33  1  0
  7 34  1  0
  8 13  1  0
  8  9  2  0
  9 10  1  0
  9 35  1  0
 10 11  1  0
 10 12  1  0
 12 13  2  0
 13 14  1  0
 14 26  1  0
 14 15  2  0
 15 16  1  0
 15 36  1  0
 16 17  2  0
 16 37  1  0
 17 18  1  0
 17 26  1  0
 18 19  1  0
 18 38  1  0
 19 20  1  0
 19 39  1  0
 19 40  1  0
 20 25  1  0
 20 21  2  0
 21 22  1  0
 21 41  1  0
 22 23  2  0
 22 42  1  0
 23 24  1  0
 23 43  1  0
 24 25  2  0
 25 44  1  0
 27 28  1  0
 27 45  1  0
 27 46  1  0
 28 29  1  0
 28 47  1  0
 28 48  1  0
 29 49  1  0
 29 50  1  0
M  CHG  1   4   1
M  END
>  <DOCK_score>  (1) 
-44.690674

>  <SMILES>  (1) 
C1=C(C[NH2+]Cc2c[nH]nc2-c2ccc(NCc3cccnc3)o2)CCC1

$$$$
