Cc1cccc(Nc2ccccc2N2CC=C([NH2+]Cc3cccnc3C)CC2)c1O
     RDKit          3D

 59 62  0  0  0  0  0  0  0  0999 V2000
  125.7027  130.8432  159.3738 C   0  0  0  0  0  0  0  0  0  0  0  0
  126.1064  131.7532  160.5051 C   0  0  0  0  0  0  0  0  0  0  0  0
  126.7471  131.2337  161.6155 C   0  0  0  0  0  0  0  0  0  0  0  0
  127.1192  132.0645  162.6556 C   0  0  0  0  0  0  0  0  0  0  0  0
  126.8572  133.4204  162.5892 C   0  0  0  0  0  0  0  0  0  0  0  0
  126.2099  133.9479  161.4814 C   0  0  0  0  0  0  0  0  0  0  0  0
  125.9387  135.3192  161.4142 N   0  0  0  0  0  0  0  0  0  0  0  0
  126.7868  136.2325  162.0517 C   0  0  0  0  0  0  0  0  0  0  0  0
  126.2912  137.0677  163.0417 C   0  0  0  0  0  0  0  0  0  0  0  0
  127.1307  137.9687  163.6702 C   0  0  0  0  0  0  0  0  0  0  0  0
  128.4649  138.0405  163.3145 C   0  0  0  0  0  0  0  0  0  0  0  0
  128.9690  137.2073  162.3330 C   0  0  0  0  0  0  0  0  0  0  0  0
  128.1330  136.3047  161.6932 C   0  0  0  0  0  0  0  0  0  0  0  0
  128.6398  135.4646  160.6948 N   0  0  0  0  0  0  0  0  0  0  0  0
  129.1235  136.2396  159.5459 C   0  0  0  0  0  0  0  0  0  0  0  0
  129.7919  135.3373  158.5493 C   0  0  0  0  0  0  0  0  0  0  0  0
  130.1926  134.1355  158.8330 C   0  0  0  0  0  0  0  0  0  0  0  0
  130.8111  133.3831  157.8301 N   0  0  0  0  0  0  0  0  0  0  0  0
  131.2920  134.0014  157.1940 H   0  0  0  0  0  0  0  0  0  0  0  0
  131.4744  132.7473  158.2470 H   0  0  0  0  0  0  0  0  0  0  0  0
  129.7951  132.6182  157.0949 C   0  0  0  0  0  0  0  0  0  0  0  0
  130.4616  131.8072  156.0137 C   0  0  0  0  0  0  0  0  0  0  0  0
  130.6451  132.3417  154.7473 C   0  0  0  0  0  0  0  0  0  0  0  0
  131.2630  131.5592  153.7841 C   0  0  0  0  0  0  0  0  0  0  0  0
  131.6729  130.2814  154.1156 C   0  0  0  0  0  0  0  0  0  0  0  0
  131.4819  129.8058  155.3305 N   0  0  0  0  0  0  0  0  0  0  0  0
  130.9029  130.5237  156.2732 C   0  0  0  0  0  0  0  0  0  0  0  0
  130.7148  129.9352  157.6478 C   0  0  0  0  0  0  0  0  0  0  0  0
  130.0213  133.5174  160.1924 C   0  0  0  0  0  0  0  0  0  0  0  0
  129.7163  134.6091  161.2214 C   0  0  0  0  0  0  0  0  0  0  0  0
  125.8354  133.1091  160.4330 C   0  0  0  0  0  0  0  0  0  0  0  0
  125.2052  133.6214  159.3421 O   0  0  0  0  0  0  0  0  0  0  0  0
  126.5149  130.7815  158.6496 H   0  0  0  0  0  0  0  0  0  0  0  0
  125.4891  129.8488  159.7659 H   0  0  0  0  0  0  0  0  0  0  0  0
  124.8118  131.2410  158.8877 H   0  0  0  0  0  0  0  0  0  0  0  0
  126.9575  130.1757  161.6699 H   0  0  0  0  0  0  0  0  0  0  0  0
  127.6195  131.6543  163.5203 H   0  0  0  0  0  0  0  0  0  0  0  0
  127.1526  134.0681  163.4014 H   0  0  0  0  0  0  0  0  0  0  0  0
  125.1631  135.6367  160.9258 H   0  0  0  0  0  0  0  0  0  0  0  0
  125.2494  137.0148  163.3215 H   0  0  0  0  0  0  0  0  0  0  0  0
  126.7432  138.6184  164.4409 H   0  0  0  0  0  0  0  0  0  0  0  0
  129.1164  138.7463  163.8084 H   0  0  0  0  0  0  0  0  0  0  0  0
  130.0127  137.2629  162.0611 H   0  0  0  0  0  0  0  0  0  0  0  0
  129.8379  136.9859  159.8932 H   0  0  0  0  0  0  0  0  0  0  0  0
  128.2805  136.7411  159.0703 H   0  0  0  0  0  0  0  0  0  0  0  0
  129.9468  135.7063  157.5463 H   0  0  0  0  0  0  0  0  0  0  0  0
  129.2755  131.9502  157.7820 H   0  0  0  0  0  0  0  0  0  0  0  0
  129.0784  133.3049  156.6443 H   0  0  0  0  0  0  0  0  0  0  0  0
  130.3140  133.3435  154.5168 H   0  0  0  0  0  0  0  0  0  0  0  0
  131.4225  131.9433  152.7873 H   0  0  0  0  0  0  0  0  0  0  0  0
  132.1547  129.6654  153.3709 H   0  0  0  0  0  0  0  0  0  0  0  0
  129.7548  129.4213  157.6948 H   0  0  0  0  0  0  0  0  0  0  0  0
  131.5170  129.2260  157.8522 H   0  0  0  0  0  0  0  0  0  0  0  0
  130.7368  130.7327  158.3905 H   0  0  0  0  0  0  0  0  0  0  0  0
  130.9384  133.0000  160.4738 H   0  0  0  0  0  0  0  0  0  0  0  0
  129.1970  132.8047  160.1646 H   0  0  0  0  0  0  0  0  0  0  0  0
  129.3957  134.1511  162.1572 H   0  0  0  0  0  0  0  0  0  0  0  0
  130.6096  135.2092  161.3944 H   0  0  0  0  0  0  0  0  0  0  0  0
  125.0602  134.5766  159.3840 H   0  0  0  0  0  0  0  0  0  0  0  0
  1  2  1  0
  1 33  1  0
  1 34  1  0
  1 35  1  0
  2 31  2  0
  2  3  1  0
  3  4  2  0
  3 36  1  0
  4  5  1  0
  4 37  1  0
  5  6  2  0
  5 38  1  0
  6  7  1  0
  6 31  1  0
  7  8  1  0
  7 39  1  0
  8 13  1  0
  8  9  2  0
  9 10  1  0
  9 40  1  0
 10 11  2  0
 10 41  1  0
 11 12  1  0
 11 42  1  0
 12 13  2  0
 12 43  1  0
 13 14  1  0
 14 30  1  0
 14 15  1  0
 15 16  1  0
 15 44  1  0
 15 45  1  0
 16 17  2  0
 16 46  1  0
 17 18  1  0
 17 29  1  0
 18 19  1  0
 18 20  1  0
 18 21  1  0
 21 22  1  0
 21 47  1  0
 21 48  1  0
 22 27  1  0
 22 23  2  0
 23 24  1  0
 23 49  1  0
 24 25  2  0
 24 50  1  0
 25 26  1  0
 25 51  1  0
 26 27  2  0
 27 28  1  0
 28 52  1  0
 28 53  1  0
 28 54  1  0
 29 30  1  0
 29 55  1  0
 29 56  1  0
 30 57  1  0
 30 58  1  0
 31 32  1  0
 32 59  1  0
M  CHG  1  18   1
M  END
>  <DOCK_score>  (1) 
-44.90715

>  <SMILES>  (1) 
Cc1cccc(Nc2ccccc2N2CC=C([NH2+]Cc3cccnc3C)CC2)c1O

$$$$
