Cn1nccc1[C@H](Nc1[nH]cc(C2=Cc3ccccc3C2)[nH+]1)c1ccccc1
     RDKit          3D

 50 54  0  0  1  0  0  0  0  0999 V2000
  133.5659  136.2214  160.7688 C   0  0  0  0  0  0  0  0  0  0  0  0
  132.4366  137.0716  161.1533 N   0  0  0  0  0  0  0  0  0  0  0  0
  132.5208  138.3773  161.6536 N   0  0  0  0  0  0  0  0  0  0  0  0
  131.3064  138.8057  161.8849 C   0  0  0  0  0  0  0  0  0  0  0  0
  130.4108  137.7898  161.5351 C   0  0  0  0  0  0  0  0  0  0  0  0
  131.1311  136.7363  161.0855 C   0  0  0  0  0  0  0  0  0  0  0  0
  130.5755  135.4216  160.6020 C   0  0  2  0  0  0  0  0  0  0  0  0
  130.9582  134.6138  161.2259 H   0  0  0  0  0  0  0  0  0  0  0  0
  130.9835  135.2003  159.2125 N   0  0  0  0  0  0  0  0  0  0  0  0
  130.5895  134.0509  158.5502 C   0  0  0  0  0  0  0  0  0  0  0  0
  129.8254  133.0552  159.0781 N   0  0  0  0  0  0  0  0  0  0  0  0
  129.4604  133.0267  159.9763 H   0  0  0  0  0  0  0  0  0  0  0  0
  129.6611  132.1024  158.1045 C   0  0  0  0  0  0  0  0  0  0  0  0
  130.3316  132.5431  157.0048 C   0  0  0  0  0  0  0  0  0  0  0  0
  130.4328  131.8447  155.7122 C   0  0  0  0  0  0  0  0  0  0  0  0
  130.0094  132.3115  154.5296 C   0  0  0  0  0  0  0  0  0  0  0  0
  130.2787  131.3420  153.4578 C   0  0  0  0  0  0  0  0  0  0  0  0
  130.0261  131.3791  152.0816 C   0  0  0  0  0  0  0  0  0  0  0  0
  130.3831  130.3097  151.2887 C   0  0  0  0  0  0  0  0  0  0  0  0
  130.9908  129.1976  151.8454 C   0  0  0  0  0  0  0  0  0  0  0  0
  131.2447  129.1517  153.2061 C   0  0  0  0  0  0  0  0  0  0  0  0
  130.8929  130.2127  154.0073 C   0  0  0  0  0  0  0  0  0  0  0  0
  131.0262  130.4734  155.4880 C   0  0  0  0  0  0  0  0  0  0  0  0
  130.8905  133.7431  157.3128 N   0  0  0  0  0  0  0  0  0  0  0  0
  131.4264  134.2849  156.7126 H   0  0  0  0  0  0  0  0  0  0  0  0
  129.0711  135.4510  160.6852 C   0  0  0  0  0  0  0  0  0  0  0  0
  128.4341  135.0268  161.8364 C   0  0  0  0  0  0  0  0  0  0  0  0
  127.0542  135.0574  161.9140 C   0  0  0  0  0  0  0  0  0  0  0  0
  126.3111  135.5047  160.8376 C   0  0  0  0  0  0  0  0  0  0  0  0
  126.9480  135.9240  159.6845 C   0  0  0  0  0  0  0  0  0  0  0  0
  128.3280  135.8969  159.6083 C   0  0  0  0  0  0  0  0  0  0  0  0
  133.8002  136.3826  159.7165 H   0  0  0  0  0  0  0  0  0  0  0  0
  134.4344  136.4738  161.3771 H   0  0  0  0  0  0  0  0  0  0  0  0
  133.3034  135.1753  160.9266 H   0  0  0  0  0  0  0  0  0  0  0  0
  131.0412  139.7762  162.2774 H   0  0  0  0  0  0  0  0  0  0  0  0
  129.3344  137.8380  161.6103 H   0  0  0  0  0  0  0  0  0  0  0  0
  131.5300  135.8596  158.7567 H   0  0  0  0  0  0  0  0  0  0  0  0
  129.1068  131.1798  158.1938 H   0  0  0  0  0  0  0  0  0  0  0  0
  129.5365  133.2714  154.3834 H   0  0  0  0  0  0  0  0  0  0  0  0
  129.5526  132.2443  151.6417 H   0  0  0  0  0  0  0  0  0  0  0  0
  130.1874  130.3394  150.2270 H   0  0  0  0  0  0  0  0  0  0  0  0
  131.2674  128.3638  151.2173 H   0  0  0  0  0  0  0  0  0  0  0  0
  131.7192  128.2830  153.6379 H   0  0  0  0  0  0  0  0  0  0  0  0
  132.0766  130.4648  155.7793 H   0  0  0  0  0  0  0  0  0  0  0  0
  130.4712  129.7252  156.0540 H   0  0  0  0  0  0  0  0  0  0  0  0
  129.0145  134.6742  162.6761 H   0  0  0  0  0  0  0  0  0  0  0  0
  126.5566  134.7294  162.8147 H   0  0  0  0  0  0  0  0  0  0  0  0
  125.2329  135.5261  160.8974 H   0  0  0  0  0  0  0  0  0  0  0  0
  126.3673  136.2731  158.8435 H   0  0  0  0  0  0  0  0  0  0  0  0
  128.8254  136.2246  158.7074 H   0  0  0  0  0  0  0  0  0  0  0  0
  1  2  1  0
  1 32  1  0
  1 33  1  0
  1 34  1  0
  2  6  1  0
  2  3  1  0
  3  4  2  0
  4  5  1  0
  4 35  1  0
  5  6  2  0
  5 36  1  0
  6  7  1  0
  7  8  1  1
  7  9  1  0
  7 26  1  0
  9 37  1  0
 10  9  1  0
 10 24  2  0
 10 11  1  0
 11 12  1  0
 11 13  1  0
 13 14  2  0
 13 38  1  0
 14 15  1  0
 14 24  1  0
 15 23  1  0
 15 16  2  0
 16 17  1  0
 16 39  1  0
 17 22  2  0
 17 18  1  0
 18 19  2  0
 18 40  1  0
 19 20  1  0
 19 41  1  0
 20 21  2  0
 20 42  1  0
 21 22  1  0
 21 43  1  0
 22 23  1  0
 23 44  1  0
 23 45  1  0
 24 25  1  0
 26 31  1  0
 26 27  2  0
 27 28  1  0
 27 46  1  0
 28 29  2  0
 28 47  1  0
 29 30  1  0
 29 48  1  0
 30 31  2  0
 30 49  1  0
 31 50  1  0
M  CHG  1  24   1
M  END
>  <DOCK_score>  (1) 
-57.226856

>  <SMILES>  (1) 
Cn1nccc1[C@H](Nc1[nH]cc(C2=Cc3ccccc3C2)[nH+]1)c1ccccc1

$$$$
