Cc1ccc([C@H](c2ccccc2)[NH+]2CCN(c3cccc4cc[nH]c34)CC2)cc1
     RDKit          3D

 57 61  0  0  1  0  0  0  0  0999 V2000
  131.5152  129.8540  155.0241 C   0  0  0  0  0  0  0  0  0  0  0  0
  131.0062  130.8074  156.0742 C   0  0  0  0  0  0  0  0  0  0  0  0
  130.5743  130.3244  157.2953 C   0  0  0  0  0  0  0  0  0  0  0  0
  130.1081  131.1991  158.2589 C   0  0  0  0  0  0  0  0  0  0  0  0
  130.0735  132.5567  158.0012 C   0  0  0  0  0  0  0  0  0  0  0  0
  129.5650  133.5103  159.0516 C   0  0  2  0  0  0  0  0  0  0  0  0
  129.2719  132.9501  159.9395 H   0  0  0  0  0  0  0  0  0  0  0  0
  128.3732  134.2601  158.5146 C   0  0  0  0  0  0  0  0  0  0  0  0
  127.1004  133.7487  158.6856 C   0  0  0  0  0  0  0  0  0  0  0  0
  126.0067  134.4387  158.1969 C   0  0  0  0  0  0  0  0  0  0  0  0
  126.1867  135.6356  157.5291 C   0  0  0  0  0  0  0  0  0  0  0  0
  127.4599  136.1445  157.3536 C   0  0  0  0  0  0  0  0  0  0  0  0
  128.5532  135.4567  157.8461 C   0  0  0  0  0  0  0  0  0  0  0  0
  130.6260  134.4637  159.4023 N   0  0  0  0  0  0  0  0  0  0  0  0
  130.8972  134.9822  158.5802 H   0  0  0  0  0  0  0  0  0  0  0  0
  131.7878  133.7327  159.9248 C   0  0  0  0  0  0  0  0  0  0  0  0
  132.9004  134.7241  160.2726 C   0  0  0  0  0  0  0  0  0  0  0  0
  132.4072  135.6769  161.2771 N   0  0  0  0  0  0  0  0  0  0  0  0
  133.4149  136.5673  161.6606 C   0  0  0  0  0  0  0  0  0  0  0  0
  133.8214  136.6306  162.9822 C   0  0  0  0  0  0  0  0  0  0  0  0
  134.8254  137.5059  163.3706 C   0  0  0  0  0  0  0  0  0  0  0  0
  135.4210  138.3299  162.4578 C   0  0  0  0  0  0  0  0  0  0  0  0
  135.0234  138.2890  161.1184 C   0  0  0  0  0  0  0  0  0  0  0  0
  135.4370  139.0097  159.9122 C   0  0  0  0  0  0  0  0  0  0  0  0
  134.6911  138.5409  158.8990 C   0  0  0  0  0  0  0  0  0  0  0  0
  133.8341  137.5791  159.3578 N   0  0  0  0  0  0  0  0  0  0  0  0
  133.1961  137.0942  158.8112 H   0  0  0  0  0  0  0  0  0  0  0  0
  134.0126  137.4015  160.7131 C   0  0  0  0  0  0  0  0  0  0  0  0
  131.2285  136.3988  160.7774 C   0  0  0  0  0  0  0  0  0  0  0  0
  130.1298  135.3935  160.4254 C   0  0  0  0  0  0  0  0  0  0  0  0
  130.5000  133.0392  156.7782 C   0  0  0  0  0  0  0  0  0  0  0  0
  130.9715  132.1651  155.8165 C   0  0  0  0  0  0  0  0  0  0  0  0
  130.6858  129.5283  154.3962 H   0  0  0  0  0  0  0  0  0  0  0  0
  132.2616  130.3561  154.4084 H   0  0  0  0  0  0  0  0  0  0  0  0
  131.9665  128.9877  155.5080 H   0  0  0  0  0  0  0  0  0  0  0  0
  130.6013  129.2636  157.4966 H   0  0  0  0  0  0  0  0  0  0  0  0
  129.7708  130.8217  159.2129 H   0  0  0  0  0  0  0  0  0  0  0  0
  126.9601  132.8116  159.2040 H   0  0  0  0  0  0  0  0  0  0  0  0
  125.0120  134.0413  158.3344 H   0  0  0  0  0  0  0  0  0  0  0  0
  125.3326  136.1734  157.1450 H   0  0  0  0  0  0  0  0  0  0  0  0
  127.6005  137.0797  156.8320 H   0  0  0  0  0  0  0  0  0  0  0  0
  129.5480  135.8543  157.7089 H   0  0  0  0  0  0  0  0  0  0  0  0
  131.4983  133.1826  160.8202 H   0  0  0  0  0  0  0  0  0  0  0  0
  132.1470  133.0337  159.1694 H   0  0  0  0  0  0  0  0  0  0  0  0
  133.1996  135.2647  159.3747 H   0  0  0  0  0  0  0  0  0  0  0  0
  133.7571  134.1830  160.6744 H   0  0  0  0  0  0  0  0  0  0  0  0
  133.3566  135.9894  163.7165 H   0  0  0  0  0  0  0  0  0  0  0  0
  135.1352  137.5401  164.4047 H   0  0  0  0  0  0  0  0  0  0  0  0
  136.1981  139.0115  162.7706 H   0  0  0  0  0  0  0  0  0  0  0  0
  136.1975  139.7740  159.8497 H   0  0  0  0  0  0  0  0  0  0  0  0
  134.7578  138.8742  157.8738 H   0  0  0  0  0  0  0  0  0  0  0  0
  131.5003  136.9669  159.8878 H   0  0  0  0  0  0  0  0  0  0  0  0
  130.8655  137.0796  161.5474 H   0  0  0  0  0  0  0  0  0  0  0  0
  129.2597  135.9260  160.0412 H   0  0  0  0  0  0  0  0  0  0  0  0
  129.8487  134.8351  161.3183 H   0  0  0  0  0  0  0  0  0  0  0  0
  130.4689  134.0995  156.5751 H   0  0  0  0  0  0  0  0  0  0  0  0
  131.3093  132.5425  154.8627 H   0  0  0  0  0  0  0  0  0  0  0  0
  1  2  1  0
  1 33  1  0
  1 34  1  0
  1 35  1  0
  2 32  2  0
  2  3  1  0
  3  4  2  0
  3 36  1  0
  4  5  1  0
  4 37  1  0
  5  6  1  0
  5 31  2  0
  6  7  1  1
  6  8  1  0
  6 14  1  0
  8 13  1  0
  8  9  2  0
  9 10  1  0
  9 38  1  0
 10 11  2  0
 10 39  1  0
 11 12  1  0
 11 40  1  0
 12 13  2  0
 12 41  1  0
 13 42  1  0
 14 15  1  0
 14 30  1  0
 14 16  1  0
 16 17  1  0
 16 43  1  0
 16 44  1  0
 17 18  1  0
 17 45  1  0
 17 46  1  0
 18 19  1  0
 18 29  1  0
 19 28  1  0
 19 20  2  0
 20 21  1  0
 20 47  1  0
 21 22  2  0
 21 48  1  0
 22 23  1  0
 22 49  1  0
 23 28  2  0
 23 24  1  0
 24 25  2  0
 24 50  1  0
 25 26  1  0
 25 51  1  0
 26 27  1  0
 26 28  1  0
 29 30  1  0
 29 52  1  0
 29 53  1  0
 30 54  1  0
 30 55  1  0
 31 32  1  0
 31 56  1  0
 32 57  1  0
M  CHG  1  14   1
M  END
>  <DOCK_score>  (1) 
-56.494701

>  <SMILES>  (1) 
Cc1ccc([C@H](c2ccccc2)[NH+]2CCN(c3cccc4cc[nH]c34)CC2)cc1

$$$$
