CCc1ccc(-c2c[nH]c(N[C@H](c3ccccc3)c3ccc(F)cc3)[nH+]2)cc1
     RDKit          3D

 51 54  0  0  1  0  0  0  0  0999 V2000
  130.7619  129.6117  151.0579 C   0  0  0  0  0  0  0  0  0  0  0  0
  131.8249  129.4399  152.1440 C   0  0  0  0  0  0  0  0  0  0  0  0
  131.4031  130.1873  153.3828 C   0  0  0  0  0  0  0  0  0  0  0  0
  130.6249  131.3248  153.2694 C   0  0  0  0  0  0  0  0  0  0  0  0
  130.2309  132.0101  154.4007 C   0  0  0  0  0  0  0  0  0  0  0  0
  130.6282  131.5603  155.6586 C   0  0  0  0  0  0  0  0  0  0  0  0
  130.2125  132.2958  156.8778 C   0  0  0  0  0  0  0  0  0  0  0  0
  129.4812  131.7925  157.9030 C   0  0  0  0  0  0  0  0  0  0  0  0
  129.3266  132.8059  158.8175 N   0  0  0  0  0  0  0  0  0  0  0  0
  128.8480  132.7519  159.6594 H   0  0  0  0  0  0  0  0  0  0  0  0
  129.9687  133.8997  158.3240 C   0  0  0  0  0  0  0  0  0  0  0  0
  130.0504  135.1347  158.9440 N   0  0  0  0  0  0  0  0  0  0  0  0
  128.9690  135.5859  159.8233 C   0  0  2  0  0  0  0  0  0  0  0  0
  128.8554  134.8837  160.6492 H   0  0  0  0  0  0  0  0  0  0  0  0
  127.6821  135.6551  159.0422 C   0  0  0  0  0  0  0  0  0  0  0  0
  126.4747  135.4347  159.6783 C   0  0  0  0  0  0  0  0  0  0  0  0
  125.2939  135.5027  158.9625 C   0  0  0  0  0  0  0  0  0  0  0  0
  125.3212  135.7818  157.6089 C   0  0  0  0  0  0  0  0  0  0  0  0
  126.5290  135.9969  156.9718 C   0  0  0  0  0  0  0  0  0  0  0  0
  127.7095  135.9333  157.6884 C   0  0  0  0  0  0  0  0  0  0  0  0
  129.3005  136.9517  160.3672 C   0  0  0  0  0  0  0  0  0  0  0  0
  128.8299  137.3333  161.6099 C   0  0  0  0  0  0  0  0  0  0  0  0
  129.1379  138.5835  162.1119 C   0  0  0  0  0  0  0  0  0  0  0  0
  129.9091  139.4579  161.3652 C   0  0  0  0  0  0  0  0  0  0  0  0
  130.2063  140.6825  161.8527 F   0  0  0  0  0  0  0  0  0  0  0  0
  130.3751  139.0769  160.1183 C   0  0  0  0  0  0  0  0  0  0  0  0
  130.0700  137.8242  159.6205 C   0  0  0  0  0  0  0  0  0  0  0  0
  130.5017  133.5893  157.1675 N   0  0  0  0  0  0  0  0  0  0  0  0
  131.0183  134.1892  156.6071 H   0  0  0  0  0  0  0  0  0  0  0  0
  131.4171  130.4163  155.7667 C   0  0  0  0  0  0  0  0  0  0  0  0
  131.8005  129.7357  154.6290 C   0  0  0  0  0  0  0  0  0  0  0  0
  129.8107  129.2166  151.4143 H   0  0  0  0  0  0  0  0  0  0  0  0
  130.6506  130.6702  150.8231 H   0  0  0  0  0  0  0  0  0  0  0  0
  131.0671  129.0710  150.1619 H   0  0  0  0  0  0  0  0  0  0  0  0
  131.9365  128.3807  152.3793 H   0  0  0  0  0  0  0  0  0  0  0  0
  132.7764  129.8345  151.7880 H   0  0  0  0  0  0  0  0  0  0  0  0
  130.3217  131.6752  152.2940 H   0  0  0  0  0  0  0  0  0  0  0  0
  129.6193  132.8959  154.3112 H   0  0  0  0  0  0  0  0  0  0  0  0
  129.0940  130.7876  157.9846 H   0  0  0  0  0  0  0  0  0  0  0  0
  130.8237  135.7013  158.7963 H   0  0  0  0  0  0  0  0  0  0  0  0
  126.4536  135.2131  160.7350 H   0  0  0  0  0  0  0  0  0  0  0  0
  124.3503  135.3349  159.4605 H   0  0  0  0  0  0  0  0  0  0  0  0
  124.3989  135.8322  157.0494 H   0  0  0  0  0  0  0  0  0  0  0  0
  126.5504  136.2149  155.9144 H   0  0  0  0  0  0  0  0  0  0  0  0
  128.6530  136.1014  157.1907 H   0  0  0  0  0  0  0  0  0  0  0  0
  128.2247  136.6526  162.1902 H   0  0  0  0  0  0  0  0  0  0  0  0
  128.7743  138.8795  163.0849 H   0  0  0  0  0  0  0  0  0  0  0  0
  130.9763  139.7584  159.5349 H   0  0  0  0  0  0  0  0  0  0  0  0
  130.4335  137.5268  158.6480 H   0  0  0  0  0  0  0  0  0  0  0  0
  131.7281  130.0634  156.7389 H   0  0  0  0  0  0  0  0  0  0  0  0
  132.4115  128.8491  154.7116 H   0  0  0  0  0  0  0  0  0  0  0  0
  1  2  1  0
  1 32  1  0
  1 33  1  0
  1 34  1  0
  2  3  1  0
  2 35  1  0
  2 36  1  0
  3 31  2  0
  3  4  1  0
  4  5  2  0
  4 37  1  0
  5  6  1  0
  5 38  1  0
  6  7  1  0
  6 30  2  0
  7 28  1  0
  7  8  2  0
  8  9  1  0
  8 39  1  0
  9 10  1  0
  9 11  1  0
 11 12  1  0
 11 28  2  0
 12 13  1  0
 12 40  1  0
 13 14  1  1
 13 15  1  0
 13 21  1  0
 15 20  1  0
 15 16  2  0
 16 17  1  0
 16 41  1  0
 17 18  2  0
 17 42  1  0
 18 19  1  0
 18 43  1  0
 19 20  2  0
 19 44  1  0
 20 45  1  0
 21 27  1  0
 21 22  2  0
 22 23  1  0
 22 46  1  0
 23 24  2  0
 23 47  1  0
 24 25  1  0
 24 26  1  0
 26 27  2  0
 26 48  1  0
 27 49  1  0
 28 29  1  0
 30 31  1  0
 30 50  1  0
 31 51  1  0
M  CHG  1  28   1
M  END
>  <DOCK_score>  (1) 
-64.09053

>  <SMILES>  (1) 
CCc1ccc(-c2c[nH]c(N[C@H](c3ccccc3)c3ccc(F)cc3)[nH+]2)cc1

$$$$
