CCc1ccc(-c2c[nH]c(N[C@@H](Cc3ccccc3Cl)c3cc(F)ccc3F)[nH+]2)cc1
     RDKit          3D

 54 57  0  0  1  0  0  0  0  0999 V2000
  130.5193  128.5227  151.7820 C   0  0  0  0  0  0  0  0  0  0  0  0
  131.4955  129.6518  152.1176 C   0  0  0  0  0  0  0  0  0  0  0  0
  131.0925  130.2934  153.4202 C   0  0  0  0  0  0  0  0  0  0  0  0
  131.6035  129.8100  154.6122 C   0  0  0  0  0  0  0  0  0  0  0  0
  131.2432  130.3967  155.8083 C   0  0  0  0  0  0  0  0  0  0  0  0
  130.3549  131.4705  155.8151 C   0  0  0  0  0  0  0  0  0  0  0  0
  129.9596  132.1016  157.0980 C   0  0  0  0  0  0  0  0  0  0  0  0
  129.3421  131.4830  158.1348 C   0  0  0  0  0  0  0  0  0  0  0  0
  129.1631  132.4294  159.1143 N   0  0  0  0  0  0  0  0  0  0  0  0
  128.7469  132.2894  159.9792 H   0  0  0  0  0  0  0  0  0  0  0  0
  129.6768  133.5998  158.6468 C   0  0  0  0  0  0  0  0  0  0  0  0
  129.6947  134.8029  159.3314 N   0  0  0  0  0  0  0  0  0  0  0  0
  129.1267  134.8874  160.6791 C   0  0  1  0  0  0  0  0  0  0  0  0
  129.3860  133.9892  161.2397 H   0  0  0  0  0  0  0  0  0  0  0  0
  129.6918  136.1160  161.3947 C   0  0  0  0  0  0  0  0  0  0  0  0
  131.1913  135.9976  161.4879 C   0  0  0  0  0  0  0  0  0  0  0  0
  131.9886  136.5001  160.4767 C   0  0  0  0  0  0  0  0  0  0  0  0
  133.3640  136.3958  160.5642 C   0  0  0  0  0  0  0  0  0  0  0  0
  133.9429  135.7797  161.6583 C   0  0  0  0  0  0  0  0  0  0  0  0
  133.1466  135.2724  162.6674 C   0  0  0  0  0  0  0  0  0  0  0  0
  131.7698  135.3811  162.5827 C   0  0  0  0  0  0  0  0  0  0  0  0
  130.7690  134.7445  163.8504 Cl  0  0  0  0  0  0  0  0  0  0  0  0
  127.6273  135.0059  160.5858 C   0  0  0  0  0  0  0  0  0  0  0  0
  126.8298  134.4987  161.5941 C   0  0  0  0  0  0  0  0  0  0  0  0
  125.4527  134.6117  161.5106 C   0  0  0  0  0  0  0  0  0  0  0  0
  124.6733  134.1199  162.4986 F   0  0  0  0  0  0  0  0  0  0  0  0
  124.8737  135.2234  160.4116 C   0  0  0  0  0  0  0  0  0  0  0  0
  125.6706  135.7260  159.4010 C   0  0  0  0  0  0  0  0  0  0  0  0
  127.0484  135.6180  159.4872 C   0  0  0  0  0  0  0  0  0  0  0  0
  127.8277  136.1094  158.4991 F   0  0  0  0  0  0  0  0  0  0  0  0
  130.1571  133.3985  157.4441 N   0  0  0  0  0  0  0  0  0  0  0  0
  130.5835  134.0701  156.8890 H   0  0  0  0  0  0  0  0  0  0  0  0
  129.8396  131.9496  154.6119 C   0  0  0  0  0  0  0  0  0  0  0  0
  130.2112  131.3589  153.4214 C   0  0  0  0  0  0  0  0  0  0  0  0
  130.8101  128.0592  150.8392 H   0  0  0  0  0  0  0  0  0  0  0  0
  130.5412  127.7761  152.5758 H   0  0  0  0  0  0  0  0  0  0  0  0
  129.5115  128.9281  151.6920 H   0  0  0  0  0  0  0  0  0  0  0  0
  132.5031  129.2471  152.2071 H   0  0  0  0  0  0  0  0  0  0  0  0
  131.4733  130.3989  151.3233 H   0  0  0  0  0  0  0  0  0  0  0  0
  132.2881  128.9748  154.6060 H   0  0  0  0  0  0  0  0  0  0  0  0
  131.6459  130.0217  156.7376 H   0  0  0  0  0  0  0  0  0  0  0  0
  129.0473  130.4451  158.1815 H   0  0  0  0  0  0  0  0  0  0  0  0
  130.0832  135.5900  158.9186 H   0  0  0  0  0  0  0  0  0  0  0  0
  129.4325  137.0143  160.8341 H   0  0  0  0  0  0  0  0  0  0  0  0
  129.2693  136.1790  162.3974 H   0  0  0  0  0  0  0  0  0  0  0  0
  131.5369  136.9776  159.6197 H   0  0  0  0  0  0  0  0  0  0  0  0
  133.9867  136.7919  159.7757 H   0  0  0  0  0  0  0  0  0  0  0  0
  135.0176  135.6952  161.7245 H   0  0  0  0  0  0  0  0  0  0  0  0
  133.5989  134.7914  163.5221 H   0  0  0  0  0  0  0  0  0  0  0  0
  127.2813  134.0175  162.4492 H   0  0  0  0  0  0  0  0  0  0  0  0
  123.7990  135.3073  160.3441 H   0  0  0  0  0  0  0  0  0  0  0  0
  125.2190  136.2027  158.5437 H   0  0  0  0  0  0  0  0  0  0  0  0
  129.1506  132.7812  154.6114 H   0  0  0  0  0  0  0  0  0  0  0  0
  129.8123  131.7290  152.4884 H   0  0  0  0  0  0  0  0  0  0  0  0
  1  2  1  0
  1 35  1  0
  1 36  1  0
  1 37  1  0
  2  3  1  0
  2 38  1  0
  2 39  1  0
  3 34  2  0
  3  4  1  0
  4  5  2  0
  4 40  1  0
  5  6  1  0
  5 41  1  0
  6  7  1  0
  6 33  2  0
  7 31  1  0
  7  8  2  0
  8  9  1  0
  8 42  1  0
  9 10  1  0
  9 11  1  0
 11 12  1  0
 11 31  2  0
 12 13  1  0
 12 43  1  0
 13 14  1  1
 13 15  1  0
 13 23  1  0
 15 16  1  0
 15 44  1  0
 15 45  1  0
 16 21  1  0
 16 17  2  0
 17 18  1  0
 17 46  1  0
 18 19  2  0
 18 47  1  0
 19 20  1  0
 19 48  1  0
 20 21  2  0
 20 49  1  0
 21 22  1  0
 23 29  1  0
 23 24  2  0
 24 25  1  0
 24 50  1  0
 25 26  1  0
 25 27  2  0
 27 28  1  0
 27 51  1  0
 28 29  2  0
 28 52  1  0
 29 30  1  0
 31 32  1  0
 33 34  1  0
 33 53  1  0
 34 54  1  0
M  CHG  1  31   1
M  END
>  <DOCK_score>  (1) 
-57.306564

>  <SMILES>  (1) 
CCc1ccc(-c2c[nH]c(N[C@@H](Cc3ccccc3Cl)c3cc(F)ccc3F)[nH+]2)cc1

$$$$
