Nc1ccc(-c2c[nH]c(N[C@H]3C[C@@H]([NH+]=C(NCc4cccs4)N[C@H]4C[C@@H](O)C4)C3)n2)cc1
     RDKit          3D

 62 66  0  0  1  0  0  0  0  0999 V2000
  137.8648  142.3509  163.2791 N   0  0  0  0  0  0  0  0  0  0  0  0
  136.8411  141.6259  162.6645 C   0  0  0  0  0  0  0  0  0  0  0  0
  136.2605  140.5492  163.3245 C   0  0  0  0  0  0  0  0  0  0  0  0
  135.2498  139.8323  162.7196 C   0  0  0  0  0  0  0  0  0  0  0  0
  134.8104  140.1879  161.4453 C   0  0  0  0  0  0  0  0  0  0  0  0
  133.7232  139.4181  160.7926 C   0  0  0  0  0  0  0  0  0  0  0  0
  133.8132  138.7517  159.6153 C   0  0  0  0  0  0  0  0  0  0  0  0
  132.5838  138.1813  159.3849 N   0  0  0  0  0  0  0  0  0  0  0  0
  132.3358  137.6399  158.6191 H   0  0  0  0  0  0  0  0  0  0  0  0
  131.7788  138.5169  160.4294 C   0  0  0  0  0  0  0  0  0  0  0  0
  130.4554  138.1398  160.5812 N   0  0  0  0  0  0  0  0  0  0  0  0
  129.6991  138.5784  161.7568 C   0  0  1  0  0  0  0  0  0  0  0  0
  129.6328  139.6633  161.8369 H   0  0  0  0  0  0  0  0  0  0  0  0
  128.3467  137.8648  161.9205 C   0  0  0  0  0  0  0  0  0  0  0  0
  129.0968  136.7992  162.7370 C   0  0  1  0  0  0  0  0  0  0  0  0
  128.5439  136.4468  163.6077 H   0  0  0  0  0  0  0  0  0  0  0  0
  129.6328  135.7056  161.9227 N   0  0  0  0  0  0  0  0  0  0  0  0
  130.5873  135.5325  161.9107 H   0  0  0  0  0  0  0  0  0  0  0  0
  128.8274  134.9653  161.2143 C   0  0  0  0  0  0  0  0  0  0  0  0
  129.3304  133.9389  160.4501 N   0  0  0  0  0  0  0  0  0  0  0  0
  130.7717  133.6775  160.4321 C   0  0  0  0  0  0  0  0  0  0  0  0
  131.0591  132.5096  159.5241 C   0  0  0  0  0  0  0  0  0  0  0  0
  131.3249  132.5969  158.2199 C   0  0  0  0  0  0  0  0  0  0  0  0
  131.5533  131.3862  157.5888 C   0  0  0  0  0  0  0  0  0  0  0  0
  131.4833  130.3166  158.3828 C   0  0  0  0  0  0  0  0  0  0  0  0
  131.1031  130.8237  160.0235 S   0  0  0  0  0  0  0  0  0  0  0  0
  127.4747  135.2107  161.2311 N   0  0  0  0  0  0  0  0  0  0  0  0
  126.5692  134.3785  160.4347 C   0  0  1  0  0  0  0  0  0  0  0  0
  127.0378  133.9881  159.5313 H   0  0  0  0  0  0  0  0  0  0  0  0
  125.8296  133.3109  161.2580 C   0  0  0  0  0  0  0  0  0  0  0  0
  124.7362  134.3654  161.4970 C   0  0  1  0  0  0  0  0  0  0  0  0
  123.7237  133.9644  161.4518 H   0  0  0  0  0  0  0  0  0  0  0  0
  124.9623  135.1724  162.6545 O   0  0  0  0  0  0  0  0  0  0  0  0
  125.1964  135.0254  160.1865 C   0  0  0  0  0  0  0  0  0  0  0  0
  130.1323  137.8882  163.0641 C   0  0  0  0  0  0  0  0  0  0  0  0
  132.4616  139.2605  161.2656 N   0  0  0  0  0  0  0  0  0  0  0  0
  135.3983  141.2645  160.7831 C   0  0  0  0  0  0  0  0  0  0  0  0
  136.4044  141.9825  161.3942 C   0  0  0  0  0  0  0  0  0  0  0  0
  138.1701  142.1026  164.1658 H   0  0  0  0  0  0  0  0  0  0  0  0
  138.2707  143.1023  162.8193 H   0  0  0  0  0  0  0  0  0  0  0  0
  136.6014  140.2737  164.3115 H   0  0  0  0  0  0  0  0  0  0  0  0
  134.7986  138.9958  163.2328 H   0  0  0  0  0  0  0  0  0  0  0  0
  134.6842  138.6818  158.9803 H   0  0  0  0  0  0  0  0  0  0  0  0
  130.0289  137.5855  159.9092 H   0  0  0  0  0  0  0  0  0  0  0  0
  127.9358  137.4880  160.9840 H   0  0  0  0  0  0  0  0  0  0  0  0
  127.6208  138.4308  162.5041 H   0  0  0  0  0  0  0  0  0  0  0  0
  128.7309  133.3881  159.9228 H   0  0  0  0  0  0  0  0  0  0  0  0
  131.1114  133.4452  161.4415 H   0  0  0  0  0  0  0  0  0  0  0  0
  131.2966  134.5599  160.0663 H   0  0  0  0  0  0  0  0  0  0  0  0
  131.3558  133.5404  157.6951 H   0  0  0  0  0  0  0  0  0  0  0  0
  131.7756  131.3135  156.5345 H   0  0  0  0  0  0  0  0  0  0  0  0
  131.6364  129.2953  158.0666 H   0  0  0  0  0  0  0  0  0  0  0  0
  127.1198  135.9347  161.7701 H   0  0  0  0  0  0  0  0  0  0  0  0
  125.4932  132.4592  160.6668 H   0  0  0  0  0  0  0  0  0  0  0  0
  126.3574  133.0158  162.1651 H   0  0  0  0  0  0  0  0  0  0  0  0
  124.5072  136.0253  162.6342 H   0  0  0  0  0  0  0  0  0  0  0  0
  125.2129  136.1144  160.2283 H   0  0  0  0  0  0  0  0  0  0  0  0
  124.6868  134.6424  159.3023 H   0  0  0  0  0  0  0  0  0  0  0  0
  129.8945  138.4616  163.9601 H   0  0  0  0  0  0  0  0  0  0  0  0
  131.1617  137.5302  163.0502 H   0  0  0  0  0  0  0  0  0  0  0  0
  135.0625  141.5392  159.7939 H   0  0  0  0  0  0  0  0  0  0  0  0
  136.8571  142.8194  160.8833 H   0  0  0  0  0  0  0  0  0  0  0  0
  1  2  1  0
  1 39  1  0
  1 40  1  0
  2 38  2  0
  2  3  1  0
  3  4  2  0
  3 41  1  0
  4  5  1  0
  4 42  1  0
  5  6  1  0
  5 37  2  0
  6 36  1  0
  6  7  2  0
  7  8  1  0
  7 43  1  0
  8  9  1  0
  8 10  1  0
 10 11  1  0
 10 36  2  0
 11 12  1  0
 11 44  1  0
 12 13  1  1
 12 35  1  0
 12 14  1  0
 14 15  1  0
 14 45  1  0
 14 46  1  0
 15 16  1  1
 15 17  1  0
 15 35  1  0
 17 18  1  0
 19 17  2  0
 19 20  1  0
 19 27  1  0
 20 21  1  0
 20 47  1  0
 21 22  1  0
 21 48  1  0
 21 49  1  0
 22 26  1  0
 22 23  2  0
 23 24  1  0
 23 50  1  0
 24 25  2  0
 24 51  1  0
 25 26  1  0
 25 52  1  0
 27 28  1  0
 27 53  1  0
 28 29  1  6
 28 34  1  0
 28 30  1  0
 30 31  1  0
 30 54  1  0
 30 55  1  0
 31 32  1  6
 31 33  1  0
 31 34  1  0
 33 56  1  0
 34 57  1  0
 34 58  1  0
 35 59  1  0
 35 60  1  0
 37 38  1  0
 37 61  1  0
 38 62  1  0
M  CHG  1  17   1
M  END
>  <DOCK_score>  (1) 
-49.551632

>  <SMILES>  (1) 
Nc1ccc(-c2c[nH]c(N[C@H]3C[C@@H]([NH+]=C(NCc4cccs4)N[C@H]4C[C@@H](O)C4)C3)n2)cc1

$$$$
