CC[C@H]([NH3+])C(=O)Nc1cc(Nc2ccc3c(c2)CCC3)ccc1Sc1ccccc1
     RDKit          3D

 58 61  0  0  1  0  0  0  0  0999 V2000
  132.1950  136.6082  163.1540 C   0  0  0  0  0  0  0  0  0  0  0  0
  132.7380  136.6533  161.7243 C   0  0  0  0  0  0  0  0  0  0  0  0
  132.3164  135.3856  160.9786 C   0  0  2  0  0  0  0  0  0  0  0  0
  132.7172  134.5117  161.4921 H   0  0  0  0  0  0  0  0  0  0  0  0
  132.8375  135.4288  159.6058 N   0  0  0  0  0  0  0  0  0  0  0  0
  132.4665  136.2378  159.1305 H   0  0  0  0  0  0  0  0  0  0  0  0
  133.8446  135.4855  159.6300 H   0  0  0  0  0  0  0  0  0  0  0  0
  132.5594  134.5929  159.1140 H   0  0  0  0  0  0  0  0  0  0  0  0
  130.8122  135.3010  160.9424 C   0  0  0  0  0  0  0  0  0  0  0  0
  130.1677  136.1811  160.4118 O   0  0  0  0  0  0  0  0  0  0  0  0
  130.1829  134.2473  161.4994 N   0  0  0  0  0  0  0  0  0  0  0  0
  128.7845  134.1687  161.4657 C   0  0  0  0  0  0  0  0  0  0  0  0
  128.0187  135.1602  162.0587 C   0  0  0  0  0  0  0  0  0  0  0  0
  126.6332  135.0798  162.0234 C   0  0  0  0  0  0  0  0  0  0  0  0
  125.8592  136.0810  162.6216 N   0  0  0  0  0  0  0  0  0  0  0  0
  125.9848  136.3376  163.9889 C   0  0  0  0  0  0  0  0  0  0  0  0
  125.7545  137.6161  164.4824 C   0  0  0  0  0  0  0  0  0  0  0  0
  125.8796  137.8634  165.8337 C   0  0  0  0  0  0  0  0  0  0  0  0
  126.2344  136.8432  166.7018 C   0  0  0  0  0  0  0  0  0  0  0  0
  126.4644  135.5697  166.2140 C   0  0  0  0  0  0  0  0  0  0  0  0
  126.3345  135.3153  164.8601 C   0  0  0  0  0  0  0  0  0  0  0  0
  126.8339  134.6443  167.3536 C   0  0  0  0  0  0  0  0  0  0  0  0
  127.2314  135.5761  168.5179 C   0  0  0  0  0  0  0  0  0  0  0  0
  126.4340  136.8594  168.2025 C   0  0  0  0  0  0  0  0  0  0  0  0
  126.0142  134.0068  161.3945 C   0  0  0  0  0  0  0  0  0  0  0  0
  126.7750  133.0172  160.8027 C   0  0  0  0  0  0  0  0  0  0  0  0
  128.1603  133.0925  160.8349 C   0  0  0  0  0  0  0  0  0  0  0  0
  129.1297  131.8293  160.0804 S   0  0  0  0  0  0  0  0  0  0  0  0
  129.3354  132.4186  158.4326 C   0  0  0  0  0  0  0  0  0  0  0  0
  128.7701  133.6293  158.0501 C   0  0  0  0  0  0  0  0  0  0  0  0
  128.9386  134.0908  156.7597 C   0  0  0  0  0  0  0  0  0  0  0  0
  129.6589  133.3442  155.8450 C   0  0  0  0  0  0  0  0  0  0  0  0
  130.2177  132.1360  156.2203 C   0  0  0  0  0  0  0  0  0  0  0  0
  130.0586  131.6710  157.5107 C   0  0  0  0  0  0  0  0  0  0  0  0
  131.1071  136.5470  163.1279 H   0  0  0  0  0  0  0  0  0  0  0  0
  132.5960  135.7343  163.6674 H   0  0  0  0  0  0  0  0  0  0  0  0
  132.4955  137.5113  163.6855 H   0  0  0  0  0  0  0  0  0  0  0  0
  133.8259  136.7146  161.7505 H   0  0  0  0  0  0  0  0  0  0  0  0
  132.3371  137.5272  161.2108 H   0  0  0  0  0  0  0  0  0  0  0  0
  130.6981  133.5435  161.9237 H   0  0  0  0  0  0  0  0  0  0  0  0
  128.4995  135.9943  162.5481 H   0  0  0  0  0  0  0  0  0  0  0  0
  125.2355  136.5965  162.0867 H   0  0  0  0  0  0  0  0  0  0  0  0
  125.4777  138.4141  163.8094 H   0  0  0  0  0  0  0  0  0  0  0  0
  125.7006  138.8571  166.2170 H   0  0  0  0  0  0  0  0  0  0  0  0
  126.5098  134.3197  164.4798 H   0  0  0  0  0  0  0  0  0  0  0  0
  127.6761  134.0128  167.0702 H   0  0  0  0  0  0  0  0  0  0  0  0
  125.9792  134.0296  167.6360 H   0  0  0  0  0  0  0  0  0  0  0  0
  128.3032  135.7737  168.5076 H   0  0  0  0  0  0  0  0  0  0  0  0
  126.9257  135.1559  169.4763 H   0  0  0  0  0  0  0  0  0  0  0  0
  127.0029  137.7406  168.4989 H   0  0  0  0  0  0  0  0  0  0  0  0
  125.4707  136.8410  168.7123 H   0  0  0  0  0  0  0  0  0  0  0  0
  124.9362  133.9463  161.3679 H   0  0  0  0  0  0  0  0  0  0  0  0
  126.2912  132.1864  160.3105 H   0  0  0  0  0  0  0  0  0  0  0  0
  128.2036  134.2105  158.7626 H   0  0  0  0  0  0  0  0  0  0  0  0
  128.5038  135.0338  156.4631 H   0  0  0  0  0  0  0  0  0  0  0  0
  129.7850  133.7054  154.8349 H   0  0  0  0  0  0  0  0  0  0  0  0
  130.7794  131.5557  155.5034 H   0  0  0  0  0  0  0  0  0  0  0  0
  130.4951  130.7275  157.8030 H   0  0  0  0  0  0  0  0  0  0  0  0
  1  2  1  0
  1 35  1  0
  1 36  1  0
  1 37  1  0
  2  3  1  0
  2 38  1  0
  2 39  1  0
  3  4  1  1
  3  5  1  0
  3  9  1  0
  5  6  1  0
  5  7  1  0
  5  8  1  0
  9 10  2  0
  9 11  1  0
 11 12  1  0
 11 40  1  0
 12 27  2  0
 12 13  1  0
 13 14  2  0
 13 41  1  0
 14 15  1  0
 14 25  1  0
 15 16  1  0
 15 42  1  0
 16 21  1  0
 16 17  2  0
 17 18  1  0
 17 43  1  0
 18 19  2  0
 18 44  1  0
 19 24  1  0
 19 20  1  0
 20 21  2  0
 20 22  1  0
 21 45  1  0
 22 23  1  0
 22 46  1  0
 22 47  1  0
 23 24  1  0
 23 48  1  0
 23 49  1  0
 24 50  1  0
 24 51  1  0
 25 26  2  0
 25 52  1  0
 26 27  1  0
 26 53  1  0
 27 28  1  0
 28 29  1  0
 29 34  1  0
 29 30  2  0
 30 31  1  0
 30 54  1  0
 31 32  2  0
 31 55  1  0
 32 33  1  0
 32 56  1  0
 33 34  2  0
 33 57  1  0
 34 58  1  0
M  CHG  1   5   1
M  END
>  <DOCK_score>  (1) 
-43.899292

>  <SMILES>  (1) 
CC[C@H]([NH3+])C(=O)Nc1cc(Nc2ccc3c(c2)CCC3)ccc1Sc1ccccc1

$$$$
