Cc1ccc(CC[C@@H](C)Nc2[nH]cc(-c3ccc(CCF)cc3)[nH+]2)cc1
     RDKit          3D

 53 55  0  0  1  0  0  0  0  0999 V2000
  131.6320  142.3398  162.6654 C   0  0  0  0  0  0  0  0  0  0  0  0
  131.3321  140.9389  162.1977 C   0  0  0  0  0  0  0  0  0  0  0  0
  132.0025  140.4157  161.1078 C   0  0  0  0  0  0  0  0  0  0  0  0
  131.7274  139.1308  160.6787 C   0  0  0  0  0  0  0  0  0  0  0  0
  130.7825  138.3687  161.3401 C   0  0  0  0  0  0  0  0  0  0  0  0
  130.4827  136.9678  160.8723 C   0  0  0  0  0  0  0  0  0  0  0  0
  129.3601  137.0062  159.8335 C   0  0  0  0  0  0  0  0  0  0  0  0
  129.0558  135.5840  159.3586 C   0  0  1  0  0  0  0  0  0  0  0  0
  129.0930  134.9016  160.2078 H   0  0  0  0  0  0  0  0  0  0  0  0
  127.6604  135.5430  158.7323 C   0  0  0  0  0  0  0  0  0  0  0  0
  130.0503  135.1785  158.3624 N   0  0  0  0  0  0  0  0  0  0  0  0
  129.9796  133.9222  157.7851 C   0  0  0  0  0  0  0  0  0  0  0  0
  129.4749  132.8054  158.3768 N   0  0  0  0  0  0  0  0  0  0  0  0
  129.1033  132.7468  159.2709 H   0  0  0  0  0  0  0  0  0  0  0  0
  129.5889  131.7761  157.4741 C   0  0  0  0  0  0  0  0  0  0  0  0
  130.1594  132.2931  156.3578 C   0  0  0  0  0  0  0  0  0  0  0  0
  130.4781  131.5483  155.1152 C   0  0  0  0  0  0  0  0  0  0  0  0
  129.8971  131.9247  153.9055 C   0  0  0  0  0  0  0  0  0  0  0  0
  130.2017  131.2317  152.7516 C   0  0  0  0  0  0  0  0  0  0  0  0
  131.0724  130.1583  152.7959 C   0  0  0  0  0  0  0  0  0  0  0  0
  131.3960  129.4008  151.5338 C   0  0  0  0  0  0  0  0  0  0  0  0
  130.3972  128.2557  151.3559 C   0  0  0  0  0  0  0  0  0  0  0  0
  130.4791  127.3907  152.4523 F   0  0  0  0  0  0  0  0  0  0  0  0
  131.6480  129.7765  153.9949 C   0  0  0  0  0  0  0  0  0  0  0  0
  131.3552  130.4659  155.1541 C   0  0  0  0  0  0  0  0  0  0  0  0
  130.3825  133.6134  156.5767 N   0  0  0  0  0  0  0  0  0  0  0  0
  130.7790  134.2298  155.9413 H   0  0  0  0  0  0  0  0  0  0  0  0
  130.1087  138.8935  162.4269 C   0  0  0  0  0  0  0  0  0  0  0  0
  130.3869  140.1769  162.8586 C   0  0  0  0  0  0  0  0  0  0  0  0
  130.9741  143.0422  162.1539 H   0  0  0  0  0  0  0  0  0  0  0  0
  131.4688  142.4063  163.7411 H   0  0  0  0  0  0  0  0  0  0  0  0
  132.6701  142.5837  162.4397 H   0  0  0  0  0  0  0  0  0  0  0  0
  132.7410  141.0110  160.5914 H   0  0  0  0  0  0  0  0  0  0  0  0
  132.2509  138.7222  159.8271 H   0  0  0  0  0  0  0  0  0  0  0  0
  130.1710  136.3600  161.7217 H   0  0  0  0  0  0  0  0  0  0  0  0
  131.3773  136.5350  160.4247 H   0  0  0  0  0  0  0  0  0  0  0  0
  129.6718  137.6140  158.9840 H   0  0  0  0  0  0  0  0  0  0  0  0
  128.4655  137.4391  160.2812 H   0  0  0  0  0  0  0  0  0  0  0  0
  127.6231  136.2255  157.8831 H   0  0  0  0  0  0  0  0  0  0  0  0
  126.9204  135.8448  159.4736 H   0  0  0  0  0  0  0  0  0  0  0  0
  127.4436  134.5298  158.3940 H   0  0  0  0  0  0  0  0  0  0  0  0
  130.7585  135.7903  158.1071 H   0  0  0  0  0  0  0  0  0  0  0  0
  129.2825  130.7515  157.6246 H   0  0  0  0  0  0  0  0  0  0  0  0
  129.2131  132.7598  153.8705 H   0  0  0  0  0  0  0  0  0  0  0  0
  129.7557  131.5253  151.8129 H   0  0  0  0  0  0  0  0  0  0  0  0
  131.3323  130.0747  150.6796 H   0  0  0  0  0  0  0  0  0  0  0  0
  132.4055  128.9952  151.6020 H   0  0  0  0  0  0  0  0  0  0  0  0
  129.3876  128.6614  151.2878 H   0  0  0  0  0  0  0  0  0  0  0  0
  130.6311  127.7082  150.4428 H   0  0  0  0  0  0  0  0  0  0  0  0
  132.3276  128.9375  154.0238 H   0  0  0  0  0  0  0  0  0  0  0  0
  131.8049  130.1672  156.0895 H   0  0  0  0  0  0  0  0  0  0  0  0
  129.3674  138.2996  162.9410 H   0  0  0  0  0  0  0  0  0  0  0  0
  129.8634  140.5855  163.7104 H   0  0  0  0  0  0  0  0  0  0  0  0
  1  2  1  0
  1 30  1  0
  1 31  1  0
  1 32  1  0
  2 29  2  0
  2  3  1  0
  3  4  2  0
  3 33  1  0
  4  5  1  0
  4 34  1  0
  5  6  1  0
  5 28  2  0
  6  7  1  0
  6 35  1  0
  6 36  1  0
  7  8  1  0
  7 37  1  0
  7 38  1  0
  8  9  1  1
  8 10  1  0
  8 11  1  0
 10 39  1  0
 10 40  1  0
 10 41  1  0
 11 42  1  0
 12 11  1  0
 12 26  2  0
 12 13  1  0
 13 14  1  0
 13 15  1  0
 15 16  2  0
 15 43  1  0
 16 17  1  0
 16 26  1  0
 17 25  1  0
 17 18  2  0
 18 19  1  0
 18 44  1  0
 19 20  2  0
 19 45  1  0
 20 21  1  0
 20 24  1  0
 21 22  1  0
 21 46  1  0
 21 47  1  0
 22 23  1  0
 22 48  1  0
 22 49  1  0
 24 25  2  0
 24 50  1  0
 25 51  1  0
 26 27  1  0
 28 29  1  0
 28 52  1  0
 29 53  1  0
M  CHG  1  26   1
M  END
>  <DOCK_score>  (1) 
-55.980415

>  <SMILES>  (1) 
Cc1ccc(CC[C@@H](C)Nc2[nH]cc(-c3ccc(CCF)cc3)[nH+]2)cc1

$$$$
