CCc1ccc(-c2c[nH]c(NC3c4cc(O)ccc4-c4ccc(O[C@]5(Cl)CC5O)cc43)[nH+]2)cc1
     RDKit          3D

 59 64  0  0  1  0  0  0  0  0999 V2000
  132.1238  129.7778  152.4330 C   0  0  0  0  0  0  0  0  0  0  0  0
  130.7100  129.8083  153.0169 C   0  0  0  0  0  0  0  0  0  0  0  0
  130.7162  130.5861  154.3076 C   0  0  0  0  0  0  0  0  0  0  0  0
  130.4895  131.9506  154.2903 C   0  0  0  0  0  0  0  0  0  0  0  0
  130.4893  132.6677  155.4695 C   0  0  0  0  0  0  0  0  0  0  0  0
  130.7291  132.0163  156.6781 C   0  0  0  0  0  0  0  0  0  0  0  0
  130.7357  132.7824  157.9483 C   0  0  0  0  0  0  0  0  0  0  0  0
  130.3828  132.3077  159.1685 C   0  0  0  0  0  0  0  0  0  0  0  0
  130.5380  133.3422  160.0589 N   0  0  0  0  0  0  0  0  0  0  0  0
  130.3658  133.3098  161.0130 H   0  0  0  0  0  0  0  0  0  0  0  0
  130.9735  134.4222  159.3547 C   0  0  0  0  0  0  0  0  0  0  0  0
  131.2470  135.6724  159.8828 N   0  0  0  0  0  0  0  0  0  0  0  0
  131.0718  135.9161  161.3167 C   0  0  2  0  0  0  0  0  0  0  0  0
  129.6947  136.4722  161.5847 C   0  0  0  0  0  0  0  0  0  0  0  0
  128.4333  135.9630  161.3644 C   0  0  0  0  0  0  0  0  0  0  0  0
  127.3138  136.7058  161.7146 C   0  0  0  0  0  0  0  0  0  0  0  0
  126.0698  136.2039  161.4979 O   0  0  0  0  0  0  0  0  0  0  0  0
  127.4659  137.9618  162.2869 C   0  0  0  0  0  0  0  0  0  0  0  0
  128.7256  138.4744  162.5092 C   0  0  0  0  0  0  0  0  0  0  0  0
  129.8549  137.7310  162.1581 C   0  0  0  0  0  0  0  0  0  0  0  0
  131.3016  138.0365  162.2831 C   0  0  0  0  0  0  0  0  0  0  0  0
  131.9633  139.1582  162.7882 C   0  0  0  0  0  0  0  0  0  0  0  0
  133.3406  139.2022  162.7939 C   0  0  0  0  0  0  0  0  0  0  0  0
  134.0757  138.1336  162.2983 C   0  0  0  0  0  0  0  0  0  0  0  0
  135.4337  138.1809  162.3063 O   0  0  0  0  0  0  0  0  0  0  0  0
  136.0503  139.2402  161.5718 C   0  0  2  0  0  0  0  0  0  0  0  0
  135.5921  139.3492  159.8314 Cl  0  0  0  0  0  0  0  0  0  0  0  0
  137.4827  139.6219  161.9505 C   0  0  0  0  0  0  0  0  0  0  0  0
  136.3212  140.5502  162.3144 C   0  0  1  0  0  0  0  0  0  0  0  0
  136.1924  141.7664  161.5754 O   0  0  0  0  0  0  0  0  0  0  0  0
  133.4226  137.0163  161.7954 C   0  0  0  0  0  0  0  0  0  0  0  0
  132.0454  136.9686  161.7875 C   0  0  0  0  0  0  0  0  0  0  0  0
  131.0905  134.0838  158.0938 N   0  0  0  0  0  0  0  0  0  0  0  0
  131.3836  134.6703  157.3789 H   0  0  0  0  0  0  0  0  0  0  0  0
  130.9622  130.6423  156.6889 C   0  0  0  0  0  0  0  0  0  0  0  0
  130.9545  129.9343  155.5043 C   0  0  0  0  0  0  0  0  0  0  0  0
  132.4593  130.7970  152.2411 H   0  0  0  0  0  0  0  0  0  0  0  0
  132.7999  129.3003  153.1421 H   0  0  0  0  0  0  0  0  0  0  0  0
  132.1194  129.2149  151.4995 H   0  0  0  0  0  0  0  0  0  0  0  0
  130.0339  130.2854  152.3080 H   0  0  0  0  0  0  0  0  0  0  0  0
  130.3747  128.7887  153.2091 H   0  0  0  0  0  0  0  0  0  0  0  0
  130.3081  132.4550  153.3527 H   0  0  0  0  0  0  0  0  0  0  0  0
  130.3076  133.7321  155.4553 H   0  0  0  0  0  0  0  0  0  0  0  0
  130.0465  131.3071  159.3970 H   0  0  0  0  0  0  0  0  0  0  0  0
  131.5547  136.3869  159.3035 H   0  0  0  0  0  0  0  0  0  0  0  0
  131.2195  134.9916  161.8749 H   0  0  0  0  0  0  0  0  0  0  0  0
  128.3156  134.9861  160.9190 H   0  0  0  0  0  0  0  0  0  0  0  0
  125.3545  136.7930  161.7740 H   0  0  0  0  0  0  0  0  0  0  0  0
  126.5942  138.5385  162.5588 H   0  0  0  0  0  0  0  0  0  0  0  0
  128.8398  139.4515  162.9547 H   0  0  0  0  0  0  0  0  0  0  0  0
  131.3951  139.9912  163.1750 H   0  0  0  0  0  0  0  0  0  0  0  0
  133.8500  140.0707  163.1848 H   0  0  0  0  0  0  0  0  0  0  0  0
  137.9547  139.0648  162.7598 H   0  0  0  0  0  0  0  0  0  0  0  0
  138.1480  139.9392  161.1475 H   0  0  0  0  0  0  0  0  0  0  0  0
  136.0291  140.6040  163.3631 H   0  0  0  0  0  0  0  0  0  0  0  0
  136.3747  142.5625  162.0931 H   0  0  0  0  0  0  0  0  0  0  0  0
  133.9940  136.1848  161.4101 H   0  0  0  0  0  0  0  0  0  0  0  0
  131.1490  130.1324  157.6226 H   0  0  0  0  0  0  0  0  0  0  0  0
  131.1350  128.8695  155.5114 H   0  0  0  0  0  0  0  0  0  0  0  0
  1  2  1  0
  1 37  1  0
  1 38  1  0
  1 39  1  0
  2  3  1  0
  2 40  1  0
  2 41  1  0
  3 36  2  0
  3  4  1  0
  4  5  2  0
  4 42  1  0
  5  6  1  0
  5 43  1  0
  6  7  1  0
  6 35  2  0
  7 33  1  0
  7  8  2  0
  8  9  1  0
  8 44  1  0
  9 10  1  0
  9 11  1  0
 11 12  1  0
 11 33  2  0
 12 13  1  0
 12 45  1  0
 13 32  1  0
 13 14  1  0
 13 46  1  1
 14 20  1  0
 14 15  2  0
 15 16  1  0
 15 47  1  0
 16 17  1  0
 16 18  2  0
 17 48  1  0
 18 19  1  0
 18 49  1  0
 19 20  2  0
 19 50  1  0
 20 21  1  0
 21 32  2  0
 21 22  1  0
 22 23  2  0
 22 51  1  0
 23 24  1  0
 23 52  1  0
 24 25  1  0
 24 31  2  0
 25 26  1  0
 26 29  1  0
 26 27  1  6
 26 28  1  0
 28 29  1  0
 28 53  1  0
 28 54  1  0
 29 30  1  0
 29 55  1  1
 30 56  1  0
 31 32  1  0
 31 57  1  0
 33 34  1  0
 35 36  1  0
 35 58  1  0
 36 59  1  0
M  CHG  1  33   1
M  END
>  <DOCK_score>  (1) 
-55.061943

>  <SMILES>  (1) 
CCc1ccc(-c2c[nH]c(NC3c4cc(O)ccc4-c4ccc(O[C@]5(Cl)CC5O)cc43)[nH+]2)cc1

$$$$
