N#Cc1ccc2c(c1)C[C@H](Nc1ccc(-c3n[nH]cc3C[NH2+]CC=CCl)o1)C2
     RDKit          3D

 49 52  0  0  1  0  0  0  0  0999 V2000
  126.9548  139.8617  169.5203 N   0  0  0  0  0  0  0  0  0  0  0  0
  127.0854  139.1257  168.6649 C   0  0  0  0  0  0  0  0  0  0  0  0
  127.2499  138.1980  167.5866 C   0  0  0  0  0  0  0  0  0  0  0  0
  127.8559  136.9600  167.8114 C   0  0  0  0  0  0  0  0  0  0  0  0
  128.0094  136.0736  166.7678 C   0  0  0  0  0  0  0  0  0  0  0  0
  127.5663  136.4031  165.4957 C   0  0  0  0  0  0  0  0  0  0  0  0
  126.9650  137.6281  165.2662 C   0  0  0  0  0  0  0  0  0  0  0  0
  126.8055  138.5254  166.3055 C   0  0  0  0  0  0  0  0  0  0  0  0
  126.5757  137.7414  163.8075 C   0  0  0  0  0  0  0  0  0  0  0  0
  127.3908  136.6478  163.0856 C   0  0  2  0  0  0  0  0  0  0  0  0
  128.3380  137.0467  162.7227 H   0  0  0  0  0  0  0  0  0  0  0  0
  126.6190  136.0634  161.9861 N   0  0  0  0  0  0  0  0  0  0  0  0
  127.1743  135.0561  161.2056 C   0  0  0  0  0  0  0  0  0  0  0  0
  126.4876  134.0631  160.5874 C   0  0  0  0  0  0  0  0  0  0  0  0
  127.4338  133.2691  159.9098 C   0  0  0  0  0  0  0  0  0  0  0  0
  128.6533  133.8191  160.1496 C   0  0  0  0  0  0  0  0  0  0  0  0
  129.9450  133.3174  159.6369 C   0  0  0  0  0  0  0  0  0  0  0  0
  130.1169  132.2621  158.8655 N   0  0  0  0  0  0  0  0  0  0  0  0
  131.4880  132.1279  158.6116 N   0  0  0  0  0  0  0  0  0  0  0  0
  131.9018  131.4345  158.0744 H   0  0  0  0  0  0  0  0  0  0  0  0
  132.1340  133.1312  159.2442 C   0  0  0  0  0  0  0  0  0  0  0  0
  131.2133  133.8846  159.8828 C   0  0  0  0  0  0  0  0  0  0  0  0
  131.4913  135.1097  160.7154 C   0  0  0  0  0  0  0  0  0  0  0  0
  132.4418  135.9775  160.0072 N   0  0  0  0  0  0  0  0  0  0  0  0
  133.3027  135.4754  159.8496 H   0  0  0  0  0  0  0  0  0  0  0  0
  132.0475  136.2554  159.1209 H   0  0  0  0  0  0  0  0  0  0  0  0
  132.7127  137.1716  160.8186 C   0  0  0  0  0  0  0  0  0  0  0  0
  133.6877  138.0620  160.0922 C   0  0  0  0  0  0  0  0  0  0  0  0
  133.2468  138.9871  159.2737 C   0  0  0  0  0  0  0  0  0  0  0  0
  134.3701  140.0126  158.4369 Cl  0  0  0  0  0  0  0  0  0  0  0  0
  128.4825  134.8990  160.9409 O   0  0  0  0  0  0  0  0  0  0  0  0
  127.6253  135.6099  164.2036 C   0  0  0  0  0  0  0  0  0  0  0  0
  128.2025  136.6982  168.8002 H   0  0  0  0  0  0  0  0  0  0  0  0
  128.4783  135.1163  166.9413 H   0  0  0  0  0  0  0  0  0  0  0  0
  126.3359  139.4811  166.1255 H   0  0  0  0  0  0  0  0  0  0  0  0
  126.8386  138.7262  163.4211 H   0  0  0  0  0  0  0  0  0  0  0  0
  125.5078  137.5603  163.6844 H   0  0  0  0  0  0  0  0  0  0  0  0
  125.7204  136.3795  161.8027 H   0  0  0  0  0  0  0  0  0  0  0  0
  125.4187  133.9102  160.6102 H   0  0  0  0  0  0  0  0  0  0  0  0
  127.2293  132.3920  159.3139 H   0  0  0  0  0  0  0  0  0  0  0  0
  133.2006  133.3012  159.2403 H   0  0  0  0  0  0  0  0  0  0  0  0
  131.9172  134.8093  161.6727 H   0  0  0  0  0  0  0  0  0  0  0  0
  130.5613  135.6520  160.8855 H   0  0  0  0  0  0  0  0  0  0  0  0
  131.7827  137.7141  160.9888 H   0  0  0  0  0  0  0  0  0  0  0  0
  133.1385  136.8714  161.7760 H   0  0  0  0  0  0  0  0  0  0  0  0
  134.7496  137.9383  160.2457 H   0  0  0  0  0  0  0  0  0  0  0  0
  132.1849  139.1108  159.1202 H   0  0  0  0  0  0  0  0  0  0  0  0
  126.8399  134.8541  164.1886 H   0  0  0  0  0  0  0  0  0  0  0  0
  128.6031  135.1427  164.0870 H   0  0  0  0  0  0  0  0  0  0  0  0
  1  2  3  0
  2  3  1  0
  3  8  2  0
  3  4  1  0
  4  5  2  0
  4 33  1  0
  5  6  1  0
  5 34  1  0
  6 32  1  0
  6  7  2  0
  7  8  1  0
  7  9  1  0
  8 35  1  0
  9 10  1  0
  9 36  1  0
  9 37  1  0
 10 11  1  6
 10 12  1  0
 10 32  1  0
 12 13  1  0
 12 38  1  0
 13 31  1  0
 13 14  2  0
 14 15  1  0
 14 39  1  0
 15 16  2  0
 15 40  1  0
 16 17  1  0
 16 31  1  0
 17 22  1  0
 17 18  2  0
 18 19  1  0
 19 20  1  0
 19 21  1  0
 21 22  2  0
 21 41  1  0
 22 23  1  0
 23 24  1  0
 23 42  1  0
 23 43  1  0
 24 25  1  0
 24 26  1  0
 24 27  1  0
 27 28  1  0
 27 44  1  0
 27 45  1  0
 28 29  2  0
 28 46  1  0
 29 30  1  0
 29 47  1  0
 32 48  1  0
 32 49  1  0
M  CHG  1  24   1
M  END
>  <DOCK_score>  (1) 
-44.853706

>  <SMILES>  (1) 
N#Cc1ccc2c(c1)C[C@H](Nc1ccc(-c3n[nH]cc3C[NH2+]CC=CCl)o1)C2

$$$$
