Cc1nn(-c2ccc(F)cc2)cc1C=C[C@@H](/C=C/Cl)Nc1[nH]cc(-c2ccc(N)cc2)[nH+]1
     RDKit          3D

 55 58  0  0  1  0  0  0  0  0999 V2000
  134.0198  139.2861  159.5655 C   0  0  0  0  0  0  0  0  0  0  0  0
  134.4806  139.3995  160.9958 C   0  0  0  0  0  0  0  0  0  0  0  0
  135.1582  140.3931  161.5069 N   0  0  0  0  0  0  0  0  0  0  0  0
  135.3971  140.1218  162.8594 N   0  0  0  0  0  0  0  0  0  0  0  0
  136.0991  140.9451  163.7511 C   0  0  0  0  0  0  0  0  0  0  0  0
  136.2600  140.5579  165.0746 C   0  0  0  0  0  0  0  0  0  0  0  0
  136.9552  141.3683  165.9506 C   0  0  0  0  0  0  0  0  0  0  0  0
  137.4838  142.5707  165.5118 C   0  0  0  0  0  0  0  0  0  0  0  0
  138.1595  143.3645  166.3712 F   0  0  0  0  0  0  0  0  0  0  0  0
  137.3201  142.9609  164.1932 C   0  0  0  0  0  0  0  0  0  0  0  0
  136.6293  142.1512  163.3132 C   0  0  0  0  0  0  0  0  0  0  0  0
  134.8354  138.9302  163.1570 C   0  0  0  0  0  0  0  0  0  0  0  0
  134.2513  138.4537  162.0170 C   0  0  0  0  0  0  0  0  0  0  0  0
  133.5186  137.1766  161.8776 C   0  0  0  0  0  0  0  0  0  0  0  0
  132.2492  137.1791  161.4971 C   0  0  0  0  0  0  0  0  0  0  0  0
  131.5026  135.8778  161.3552 C   0  0  1  0  0  0  0  0  0  0  0  0
  132.1653  135.0494  161.6059 H   0  0  0  0  0  0  0  0  0  0  0  0
  130.3186  135.8737  162.2876 C   0  0  0  0  0  0  0  0  0  0  0  0
  130.2204  134.9552  163.2187 C   0  0  0  0  0  0  0  0  0  0  0  0
  128.8602  134.9548  164.2974 Cl  0  0  0  0  0  0  0  0  0  0  0  0
  131.0370  135.7301  159.9741 N   0  0  0  0  0  0  0  0  0  0  0  0
  130.8997  134.4682  159.4210 C   0  0  0  0  0  0  0  0  0  0  0  0
  130.5892  133.3331  160.1041 N   0  0  0  0  0  0  0  0  0  0  0  0
  130.4261  133.2627  161.0577 H   0  0  0  0  0  0  0  0  0  0  0  0
  130.5498  132.3043  159.1929 C   0  0  0  0  0  0  0  0  0  0  0  0
  130.8372  132.8410  157.9814 C   0  0  0  0  0  0  0  0  0  0  0  0
  130.9085  132.1050  156.6953 C   0  0  0  0  0  0  0  0  0  0  0  0
  130.5870  132.7510  155.5025 C   0  0  0  0  0  0  0  0  0  0  0  0
  130.6596  132.0665  154.3076 C   0  0  0  0  0  0  0  0  0  0  0  0
  131.0417  130.7303  154.2933 C   0  0  0  0  0  0  0  0  0  0  0  0
  131.1094  130.0373  153.0821 N   0  0  0  0  0  0  0  0  0  0  0  0
  131.3570  130.0826  155.4817 C   0  0  0  0  0  0  0  0  0  0  0  0
  131.2914  130.7647  156.6783 C   0  0  0  0  0  0  0  0  0  0  0  0
  131.0420  134.1711  158.1523 N   0  0  0  0  0  0  0  0  0  0  0  0
  131.2609  134.8014  157.4483 H   0  0  0  0  0  0  0  0  0  0  0  0
  133.0316  139.7354  159.4653 H   0  0  0  0  0  0  0  0  0  0  0  0
  134.7229  139.8061  158.9149 H   0  0  0  0  0  0  0  0  0  0  0  0
  133.9713  138.2349  159.2817 H   0  0  0  0  0  0  0  0  0  0  0  0
  135.8447  139.6220  165.4182 H   0  0  0  0  0  0  0  0  0  0  0  0
  137.0835  141.0659  166.9795 H   0  0  0  0  0  0  0  0  0  0  0  0
  137.7328  143.8991  163.8529 H   0  0  0  0  0  0  0  0  0  0  0  0
  136.5020  142.4557  162.2849 H   0  0  0  0  0  0  0  0  0  0  0  0
  134.8461  138.4425  164.1205 H   0  0  0  0  0  0  0  0  0  0  0  0
  134.0181  136.2421  162.0860 H   0  0  0  0  0  0  0  0  0  0  0  0
  131.7497  138.1138  161.2887 H   0  0  0  0  0  0  0  0  0  0  0  0
  129.5510  136.6270  162.1890 H   0  0  0  0  0  0  0  0  0  0  0  0
  130.9880  134.2020  163.3174 H   0  0  0  0  0  0  0  0  0  0  0  0
  130.8249  136.5162  159.4470 H   0  0  0  0  0  0  0  0  0  0  0  0
  130.3316  131.2675  159.4021 H   0  0  0  0  0  0  0  0  0  0  0  0
  130.2855  133.7879  155.5138 H   0  0  0  0  0  0  0  0  0  0  0  0
  130.4146  132.5677  153.3830 H   0  0  0  0  0  0  0  0  0  0  0  0
  131.3762  129.1048  153.0711 H   0  0  0  0  0  0  0  0  0  0  0  0
  130.8894  130.4887  152.2521 H   0  0  0  0  0  0  0  0  0  0  0  0
  131.6533  129.0441  155.4682 H   0  0  0  0  0  0  0  0  0  0  0  0
  131.5368  130.2611  157.6017 H   0  0  0  0  0  0  0  0  0  0  0  0
  1  2  1  0
  1 36  1  0
  1 37  1  0
  1 38  1  0
  2 13  1  0
  2  3  2  0
  3  4  1  0
  4  5  1  0
  4 12  1  0
  5 11  1  0
  5  6  2  0
  6  7  1  0
  6 39  1  0
  7  8  2  0
  7 40  1  0
  8  9  1  0
  8 10  1  0
 10 11  2  0
 10 41  1  0
 11 42  1  0
 12 13  2  0
 12 43  1  0
 13 14  1  0
 14 15  2  0
 14 44  1  0
 15 16  1  0
 15 45  1  0
 16 17  1  1
 16 18  1  0
 16 21  1  0
 18 19  2  0
 18 46  1  0
 19 20  1  0
 19 47  1  0
 21 48  1  0
 22 21  1  0
 22 34  2  0
 22 23  1  0
 23 24  1  0
 23 25  1  0
 25 26  2  0
 25 49  1  0
 26 27  1  0
 26 34  1  0
 27 33  1  0
 27 28  2  0
 28 29  1  0
 28 50  1  0
 29 30  2  0
 29 51  1  0
 30 31  1  0
 30 32  1  0
 31 52  1  0
 31 53  1  0
 32 33  2  0
 32 54  1  0
 33 55  1  0
 34 35  1  0
M  CHG  1  34   1
M  END
>  <DOCK_score>  (1) 
-57.675907

>  <SMILES>  (1) 
Cc1nn(-c2ccc(F)cc2)cc1C=C[C@@H](/C=C/Cl)Nc1[nH]cc(-c2ccc(N)cc2)[nH+]1

$$$$
