CCc1ccc(-c2c[nH]c(N[C@H](c3cccc(Cl)c3C)C3CNC(=O)C3)[nH+]2)cc1
     RDKit          3D

 55 58  0  0  1  0  0  0  0  0999 V2000
  129.8145  128.5429  150.6515 C   0  0  0  0  0  0  0  0  0  0  0  0
  130.9140  129.5981  150.7938 C   0  0  0  0  0  0  0  0  0  0  0  0
  130.8745  130.1803  152.1832 C   0  0  0  0  0  0  0  0  0  0  0  0
  131.6192  129.5999  153.1948 C   0  0  0  0  0  0  0  0  0  0  0  0
  131.5869  130.1287  154.4691 C   0  0  0  0  0  0  0  0  0  0  0  0
  130.8024  131.2493  154.7361 C   0  0  0  0  0  0  0  0  0  0  0  0
  130.7636  131.8222  156.1037 C   0  0  0  0  0  0  0  0  0  0  0  0
  130.3534  131.1813  157.2261 C   0  0  0  0  0  0  0  0  0  0  0  0
  130.4797  132.0732  158.2633 N   0  0  0  0  0  0  0  0  0  0  0  0
  130.2638  131.9062  159.1940 H   0  0  0  0  0  0  0  0  0  0  0  0
  130.9641  133.2341  157.7438 C   0  0  0  0  0  0  0  0  0  0  0  0
  131.2344  134.3873  158.4604 N   0  0  0  0  0  0  0  0  0  0  0  0
  130.9993  134.4234  159.9061 C   0  0  2  0  0  0  0  0  0  0  0  0
  131.6092  133.6621  160.3924 H   0  0  0  0  0  0  0  0  0  0  0  0
  129.5430  134.1541  160.1850 C   0  0  0  0  0  0  0  0  0  0  0  0
  129.1768  133.0678  160.9581 C   0  0  0  0  0  0  0  0  0  0  0  0
  127.8413  132.8198  161.2140 C   0  0  0  0  0  0  0  0  0  0  0  0
  126.8713  133.6615  160.7023 C   0  0  0  0  0  0  0  0  0  0  0  0
  127.2369  134.7448  159.9235 C   0  0  0  0  0  0  0  0  0  0  0  0
  126.0189  135.7974  159.2737 Cl  0  0  0  0  0  0  0  0  0  0  0  0
  128.5739  134.9922  159.6674 C   0  0  0  0  0  0  0  0  0  0  0  0
  128.9732  136.1755  158.8239 C   0  0  0  0  0  0  0  0  0  0  0  0
  131.3761  135.8029  160.4497 C   0  0  2  0  0  0  0  0  0  0  0  0
  132.8999  136.0381  160.3527 C   0  0  0  0  0  0  0  0  0  0  0  0
  133.2553  136.8001  161.5564 N   0  0  0  0  0  0  0  0  0  0  0  0
  132.2877  136.7239  162.4863 C   0  0  0  0  0  0  0  0  0  0  0  0
  132.3279  137.2556  163.5756 O   0  0  0  0  0  0  0  0  0  0  0  0
  131.1409  135.8793  161.9761 C   0  0  0  0  0  0  0  0  0  0  0  0
  131.1271  133.0822  156.4522 N   0  0  0  0  0  0  0  0  0  0  0  0
  131.4573  133.7610  155.8432 H   0  0  0  0  0  0  0  0  0  0  0  0
  130.0500  131.8262  153.7145 C   0  0  0  0  0  0  0  0  0  0  0  0
  130.0939  131.2920  152.4427 C   0  0  0  0  0  0  0  0  0  0  0  0
  129.8430  128.1219  149.6465 H   0  0  0  0  0  0  0  0  0  0  0  0
  129.9748  127.7501  151.3822 H   0  0  0  0  0  0  0  0  0  0  0  0
  128.8428  129.0053  150.8244 H   0  0  0  0  0  0  0  0  0  0  0  0
  130.7535  130.3904  150.0632 H   0  0  0  0  0  0  0  0  0  0  0  0
  131.8856  129.1353  150.6210 H   0  0  0  0  0  0  0  0  0  0  0  0
  132.2266  128.7316  152.9867 H   0  0  0  0  0  0  0  0  0  0  0  0
  132.1687  129.6753  155.2579 H   0  0  0  0  0  0  0  0  0  0  0  0
  129.9952  130.1646  157.2919 H   0  0  0  0  0  0  0  0  0  0  0  0
  131.5794  135.1714  158.0055 H   0  0  0  0  0  0  0  0  0  0  0  0
  129.9345  132.4128  161.3622 H   0  0  0  0  0  0  0  0  0  0  0  0
  127.5557  131.9711  161.8177 H   0  0  0  0  0  0  0  0  0  0  0  0
  125.8282  133.4704  160.9062 H   0  0  0  0  0  0  0  0  0  0  0  0
  129.1232  137.0445  159.4645 H   0  0  0  0  0  0  0  0  0  0  0  0
  129.8996  135.9492  158.2958 H   0  0  0  0  0  0  0  0  0  0  0  0
  128.1858  136.3887  158.1009 H   0  0  0  0  0  0  0  0  0  0  0  0
  130.8264  136.5881  159.9306 H   0  0  0  0  0  0  0  0  0  0  0  0
  133.4285  135.0850  160.3400 H   0  0  0  0  0  0  0  0  0  0  0  0
  133.1365  136.6134  159.4577 H   0  0  0  0  0  0  0  0  0  0  0  0
  134.0822  137.2953  161.6660 H   0  0  0  0  0  0  0  0  0  0  0  0
  130.1872  136.3610  162.1915 H   0  0  0  0  0  0  0  0  0  0  0  0
  131.1725  134.8832  162.4173 H   0  0  0  0  0  0  0  0  0  0  0  0
  129.4364  132.6916  153.9168 H   0  0  0  0  0  0  0  0  0  0  0  0
  129.5145  131.7407  151.6493 H   0  0  0  0  0  0  0  0  0  0  0  0
  1  2  1  0
  1 33  1  0
  1 34  1  0
  1 35  1  0
  2  3  1  0
  2 36  1  0
  2 37  1  0
  3 32  2  0
  3  4  1  0
  4  5  2  0
  4 38  1  0
  5  6  1  0
  5 39  1  0
  6  7  1  0
  6 31  2  0
  7 29  1  0
  7  8  2  0
  8  9  1  0
  8 40  1  0
  9 10  1  0
  9 11  1  0
 11 12  1  0
 11 29  2  0
 12 13  1  0
 12 41  1  0
 13 14  1  1
 13 15  1  0
 13 23  1  0
 15 21  1  0
 15 16  2  0
 16 17  1  0
 16 42  1  0
 17 18  2  0
 17 43  1  0
 18 19  1  0
 18 44  1  0
 19 20  1  0
 19 21  2  0
 21 22  1  0
 22 45  1  0
 22 46  1  0
 22 47  1  0
 23 28  1  0
 23 24  1  0
 23 48  1  6
 24 25  1  0
 24 49  1  0
 24 50  1  0
 25 26  1  0
 25 51  1  0
 26 27  2  0
 26 28  1  0
 28 52  1  0
 28 53  1  0
 29 30  1  0
 31 32  1  0
 31 54  1  0
 32 55  1  0
M  CHG  1  29   1
M  END
>  <DOCK_score>  (1) 
-59.943073

>  <SMILES>  (1) 
CCc1ccc(-c2c[nH]c(N[C@H](c3cccc(Cl)c3C)C3CNC(=O)C3)[nH+]2)cc1

$$$$
