CCc1ccc(-c2c[nH]c(NC(c3ccccc3)[C@H](C)O)[nH+]2)cc1
     RDKit          3D

 48 50  0  0  1  0  0  0  0  0999 V2000
  130.5844  128.4265  151.6393 C   0  0  0  0  0  0  0  0  0  0  0  0
  131.6700  129.4441  151.9938 C   0  0  0  0  0  0  0  0  0  0  0  0
  131.2871  130.1675  153.2591 C   0  0  0  0  0  0  0  0  0  0  0  0
  131.6791  129.6661  154.4866 C   0  0  0  0  0  0  0  0  0  0  0  0
  131.3345  130.3278  155.6476 C   0  0  0  0  0  0  0  0  0  0  0  0
  130.5811  131.4985  155.5819 C   0  0  0  0  0  0  0  0  0  0  0  0
  130.2035  132.2118  156.8264 C   0  0  0  0  0  0  0  0  0  0  0  0
  129.4586  131.7072  157.8409 C   0  0  0  0  0  0  0  0  0  0  0  0
  129.3537  132.6960  158.7886 N   0  0  0  0  0  0  0  0  0  0  0  0
  128.8814  132.6342  159.6336 H   0  0  0  0  0  0  0  0  0  0  0  0
  130.0311  133.7800  158.3213 C   0  0  0  0  0  0  0  0  0  0  0  0
  130.1629  134.9925  158.9762 N   0  0  0  0  0  0  0  0  0  0  0  0
  129.1060  135.4564  159.8785 C   0  0  2  0  0  0  0  0  0  0  0  0
  127.8161  135.5951  159.1118 C   0  0  0  0  0  0  0  0  0  0  0  0
  126.6068  135.3998  159.7524 C   0  0  0  0  0  0  0  0  0  0  0  0
  125.4233  135.5318  159.0503 C   0  0  0  0  0  0  0  0  0  0  0  0
  125.4495  135.8487  157.7052 C   0  0  0  0  0  0  0  0  0  0  0  0
  126.6589  136.0388  157.0632 C   0  0  0  0  0  0  0  0  0  0  0  0
  127.8421  135.9120  157.7665 C   0  0  0  0  0  0  0  0  0  0  0  0
  129.4976  136.8129  160.4677 C   0  0  2  0  0  0  0  0  0  0  0  0
  129.6300  137.5346  159.6618 H   0  0  0  0  0  0  0  0  0  0  0  0
  130.8071  136.6719  161.2463 C   0  0  0  0  0  0  0  0  0  0  0  0
  128.4666  137.2654  161.3477 O   0  0  0  0  0  0  0  0  0  0  0  0
  130.5376  133.4868  157.1485 N   0  0  0  0  0  0  0  0  0  0  0  0
  131.0663  134.0858  156.5985 H   0  0  0  0  0  0  0  0  0  0  0  0
  130.1840  131.9968  154.3422 C   0  0  0  0  0  0  0  0  0  0  0  0
  130.5385  131.3293  153.1875 C   0  0  0  0  0  0  0  0  0  0  0  0
  130.4799  127.7079  152.4522 H   0  0  0  0  0  0  0  0  0  0  0  0
  129.6373  128.9442  151.4881 H   0  0  0  0  0  0  0  0  0  0  0  0
  130.8622  127.9026  150.7247 H   0  0  0  0  0  0  0  0  0  0  0  0
  132.6180  128.9259  152.1454 H   0  0  0  0  0  0  0  0  0  0  0  0
  131.7753  130.1623  151.1813 H   0  0  0  0  0  0  0  0  0  0  0  0
  132.2598  128.7569  154.5365 H   0  0  0  0  0  0  0  0  0  0  0  0
  131.6451  129.9374  156.6054 H   0  0  0  0  0  0  0  0  0  0  0  0
  129.0316  130.7166  157.8946 H   0  0  0  0  0  0  0  0  0  0  0  0
  130.9550  135.5349  158.8377 H   0  0  0  0  0  0  0  0  0  0  0  0
  128.9737  134.7346  160.6846 H   0  0  0  0  0  0  0  0  0  0  0  0
  126.5865  135.1479  160.8025 H   0  0  0  0  0  0  0  0  0  0  0  0
  124.4785  135.3830  159.5518 H   0  0  0  0  0  0  0  0  0  0  0  0
  124.5251  135.9474  157.1555 H   0  0  0  0  0  0  0  0  0  0  0  0
  126.6794  136.2861  156.0121 H   0  0  0  0  0  0  0  0  0  0  0  0
  128.7871  136.0602  157.2649 H   0  0  0  0  0  0  0  0  0  0  0  0
  131.5934  136.3267  160.5751 H   0  0  0  0  0  0  0  0  0  0  0  0
  131.0860  137.6383  161.6662 H   0  0  0  0  0  0  0  0  0  0  0  0
  130.6746  135.9502  162.0525 H   0  0  0  0  0  0  0  0  0  0  0  0
  128.2942  136.6705  162.0905 H   0  0  0  0  0  0  0  0  0  0  0  0
  129.5997  132.9034  154.2854 H   0  0  0  0  0  0  0  0  0  0  0  0
  130.2314  131.7145  152.2264 H   0  0  0  0  0  0  0  0  0  0  0  0
  1  2  1  0
  1 28  1  0
  1 29  1  0
  1 30  1  0
  2  3  1  0
  2 31  1  0
  2 32  1  0
  3 27  2  0
  3  4  1  0
  4  5  2  0
  4 33  1  0
  5  6  1  0
  5 34  1  0
  6  7  1  0
  6 26  2  0
  7 24  1  0
  7  8  2  0
  8  9  1  0
  8 35  1  0
  9 10  1  0
  9 11  1  0
 11 12  1  0
 11 24  2  0
 12 13  1  0
 12 36  1  0
 13 14  1  0
 13 20  1  0
 13 37  1  1
 14 19  1  0
 14 15  2  0
 15 16  1  0
 15 38  1  0
 16 17  2  0
 16 39  1  0
 17 18  1  0
 17 40  1  0
 18 19  2  0
 18 41  1  0
 19 42  1  0
 20 21  1  6
 20 22  1  0
 20 23  1  0
 22 43  1  0
 22 44  1  0
 22 45  1  0
 23 46  1  0
 24 25  1  0
 26 27  1  0
 26 47  1  0
 27 48  1  0
M  CHG  1  24   1
M  END
>  <DOCK_score>  (1) 
-58.683079

>  <SMILES>  (1) 
CCc1ccc(-c2c[nH]c(NC(c3ccccc3)[C@H](C)O)[nH+]2)cc1

$$$$
