CCc1ccc(C2=CC[N@H+](C(c3ccccc3Cl)c3ccccc3Cl)CC2)cc1
     RDKit          3D

 55 58  0  0  1  0  0  0  0  0999 V2000
  136.0231  141.9162  161.6055 C   0  0  0  0  0  0  0  0  0  0  0  0
  136.6343  140.5266  161.7961 C   0  0  0  0  0  0  0  0  0  0  0  0
  135.6127  139.4760  161.4446 C   0  0  0  0  0  0  0  0  0  0  0  0
  135.5259  139.0069  160.1461 C   0  0  0  0  0  0  0  0  0  0  0  0
  134.5925  138.0453  159.8176 C   0  0  0  0  0  0  0  0  0  0  0  0
  133.7351  137.5458  160.7986 C   0  0  0  0  0  0  0  0  0  0  0  0
  132.7328  136.5156  160.4538 C   0  0  0  0  0  0  0  0  0  0  0  0
  131.4582  136.7842  160.6379 C   0  0  0  0  0  0  0  0  0  0  0  0
  130.3641  135.8032  160.3297 C   0  0  0  0  0  0  0  0  0  0  0  0
  130.8572  134.7571  159.4234 N   0  0  2  0  0  0  0  0  0  0  0  0
  131.0668  135.1569  158.5210 H   0  0  0  0  0  0  0  0  0  0  0  0
  129.8324  133.7153  159.2734 C   0  0  0  0  0  0  0  0  0  0  0  0
  128.5775  134.3235  158.7025 C   0  0  0  0  0  0  0  0  0  0  0  0
  128.6603  135.4164  157.8601 C   0  0  0  0  0  0  0  0  0  0  0  0
  127.5093  135.9741  157.3360 C   0  0  0  0  0  0  0  0  0  0  0  0
  126.2745  135.4399  157.6546 C   0  0  0  0  0  0  0  0  0  0  0  0
  126.1904  134.3476  158.4969 C   0  0  0  0  0  0  0  0  0  0  0  0
  127.3427  133.7847  159.0166 C   0  0  0  0  0  0  0  0  0  0  0  0
  127.2384  132.4074  160.0682 Cl  0  0  0  0  0  0  0  0  0  0  0  0
  130.3389  132.6428  158.3438 C   0  0  0  0  0  0  0  0  0  0  0  0
  130.6840  132.9612  157.0437 C   0  0  0  0  0  0  0  0  0  0  0  0
  131.1489  131.9778  156.1910 C   0  0  0  0  0  0  0  0  0  0  0  0
  131.2680  130.6747  156.6375 C   0  0  0  0  0  0  0  0  0  0  0  0
  130.9228  130.3549  157.9369 C   0  0  0  0  0  0  0  0  0  0  0  0
  130.4636  131.3403  158.7929 C   0  0  0  0  0  0  0  0  0  0  0  0
  130.0376  130.9410  160.4278 Cl  0  0  0  0  0  0  0  0  0  0  0  0
  132.0777  134.1685  159.9968 C   0  0  0  0  0  0  0  0  0  0  0  0
  133.2066  135.1982  159.9043 C   0  0  0  0  0  0  0  0  0  0  0  0
  133.8242  138.0270  162.1054 C   0  0  0  0  0  0  0  0  0  0  0  0
  134.7653  138.9851  162.4218 C   0  0  0  0  0  0  0  0  0  0  0  0
  136.7620  142.6761  161.8597 H   0  0  0  0  0  0  0  0  0  0  0  0
  135.7179  142.0394  160.5663 H   0  0  0  0  0  0  0  0  0  0  0  0
  135.1541  142.0231  162.2544 H   0  0  0  0  0  0  0  0  0  0  0  0
  136.9394  140.4034  162.8353 H   0  0  0  0  0  0  0  0  0  0  0  0
  137.5035  140.4198  161.1471 H   0  0  0  0  0  0  0  0  0  0  0  0
  136.1901  139.3943  159.3877 H   0  0  0  0  0  0  0  0  0  0  0  0
  134.5252  137.6804  158.8034 H   0  0  0  0  0  0  0  0  0  0  0  0
  131.1869  137.7522  161.0324 H   0  0  0  0  0  0  0  0  0  0  0  0
  130.0168  135.3473  161.2569 H   0  0  0  0  0  0  0  0  0  0  0  0
  129.5337  136.3264  159.8555 H   0  0  0  0  0  0  0  0  0  0  0  0
  129.6136  133.2780  160.2477 H   0  0  0  0  0  0  0  0  0  0  0  0
  129.6245  135.8343  157.6112 H   0  0  0  0  0  0  0  0  0  0  0  0
  127.5746  136.8278  156.6776 H   0  0  0  0  0  0  0  0  0  0  0  0
  125.3755  135.8766  157.2453 H   0  0  0  0  0  0  0  0  0  0  0  0
  125.2258  133.9302  158.7453 H   0  0  0  0  0  0  0  0  0  0  0  0
  130.5909  133.9789  156.6942 H   0  0  0  0  0  0  0  0  0  0  0  0
  131.4188  132.2271  155.1754 H   0  0  0  0  0  0  0  0  0  0  0  0
  131.6306  129.9065  155.9706 H   0  0  0  0  0  0  0  0  0  0  0  0
  131.0162  129.3370  158.2856 H   0  0  0  0  0  0  0  0  0  0  0  0
  132.3510  133.2746  159.4361 H   0  0  0  0  0  0  0  0  0  0  0  0
  131.9033  133.9094  161.0411 H   0  0  0  0  0  0  0  0  0  0  0  0
  133.4992  135.3237  158.8618 H   0  0  0  0  0  0  0  0  0  0  0  0
  134.0631  134.8508  160.4821 H   0  0  0  0  0  0  0  0  0  0  0  0
  133.1605  137.6476  162.8682 H   0  0  0  0  0  0  0  0  0  0  0  0
  134.8377  139.3557  163.4337 H   0  0  0  0  0  0  0  0  0  0  0  0
  1  2  1  0
  1 31  1  0
  1 32  1  0
  1 33  1  0
  2  3  1  0
  2 34  1  0
  2 35  1  0
  3 30  2  0
  3  4  1  0
  4  5  2  0
  4 36  1  0
  5  6  1  0
  5 37  1  0
  6  7  1  0
  6 29  2  0
  7 28  1  0
  7  8  2  0
  8  9  1  0
  8 38  1  0
  9 10  1  0
  9 39  1  0
  9 40  1  0
 10 11  1  6
 10 12  1  0
 10 27  1  0
 12 13  1  0
 12 20  1  0
 12 41  1  0
 13 18  1  0
 13 14  2  0
 14 15  1  0
 14 42  1  0
 15 16  2  0
 15 43  1  0
 16 17  1  0
 16 44  1  0
 17 18  2  0
 17 45  1  0
 18 19  1  0
 20 25  1  0
 20 21  2  0
 21 22  1  0
 21 46  1  0
 22 23  2  0
 22 47  1  0
 23 24  1  0
 23 48  1  0
 24 25  2  0
 24 49  1  0
 25 26  1  0
 27 28  1  0
 27 50  1  0
 27 51  1  0
 28 52  1  0
 28 53  1  0
 29 30  1  0
 29 54  1  0
 30 55  1  0
M  CHG  1  10   1
M  END
>  <DOCK_score>  (1) 
-56.312546

>  <SMILES>  (1) 
CCc1ccc(C2=CC[N@H+](C(c3ccccc3Cl)c3ccccc3Cl)CC2)cc1

$$$$
