C[C@H]([NH2+]C1=CCCCC1)C(=O)c1cccc(O)c1
     RDKit          3D

 38 39  0  0  1  0  0  0  0  0999 V2000
  129.3960  136.0890  160.8848 C   0  0  0  0  0  0  0  0  0  0  0  0
  129.1578  134.8946  159.9587 C   0  0  2  0  0  0  0  0  0  0  0  0
  129.3357  133.9691  160.5064 H   0  0  0  0  0  0  0  0  0  0  0  0
  130.0764  134.9710  158.8148 N   0  0  0  0  0  0  0  0  0  0  0  0
  129.7151  135.6248  158.1366 H   0  0  0  0  0  0  0  0  0  0  0  0
  130.9828  135.2812  159.1315 H   0  0  0  0  0  0  0  0  0  0  0  0
  130.1952  133.7080  158.2274 C   0  0  0  0  0  0  0  0  0  0  0  0
  131.1263  132.9212  158.6627 C   0  0  0  0  0  0  0  0  0  0  0  0
  131.3822  131.5436  158.1258 C   0  0  0  0  0  0  0  0  0  0  0  0
  130.1693  131.0537  157.3317 C   0  0  0  0  0  0  0  0  0  0  0  0
  129.7637  132.1508  156.3394 C   0  0  0  0  0  0  0  0  0  0  0  0
  129.2314  133.3464  157.1356 C   0  0  0  0  0  0  0  0  0  0  0  0
  127.7349  134.9193  159.4630 C   0  0  0  0  0  0  0  0  0  0  0  0
  127.4597  135.5087  158.4397 O   0  0  0  0  0  0  0  0  0  0  0  0
  126.6784  134.2332  160.2241 C   0  0  0  0  0  0  0  0  0  0  0  0
  126.7610  132.8562  160.4559 C   0  0  0  0  0  0  0  0  0  0  0  0
  125.7687  132.2178  161.1695 C   0  0  0  0  0  0  0  0  0  0  0  0
  124.6907  132.9342  161.6575 C   0  0  0  0  0  0  0  0  0  0  0  0
  124.5987  134.3014  161.4326 C   0  0  0  0  0  0  0  0  0  0  0  0
  123.5365  134.9988  161.9148 O   0  0  0  0  0  0  0  0  0  0  0  0
  125.5911  134.9557  160.7232 C   0  0  0  0  0  0  0  0  0  0  0  0
  129.1520  137.0116  160.3579 H   0  0  0  0  0  0  0  0  0  0  0  0
  128.7630  135.9964  161.7674 H   0  0  0  0  0  0  0  0  0  0  0  0
  130.4426  136.1100  161.1888 H   0  0  0  0  0  0  0  0  0  0  0  0
  131.7582  133.2785  159.4625 H   0  0  0  0  0  0  0  0  0  0  0  0
  132.2555  131.5663  157.4738 H   0  0  0  0  0  0  0  0  0  0  0  0
  131.5705  130.8618  158.9550 H   0  0  0  0  0  0  0  0  0  0  0  0
  130.4298  130.1457  156.7878 H   0  0  0  0  0  0  0  0  0  0  0  0
  129.3438  130.8484  158.0134 H   0  0  0  0  0  0  0  0  0  0  0  0
  130.6312  132.4535  155.7531 H   0  0  0  0  0  0  0  0  0  0  0  0
  128.9829  131.7758  155.6776 H   0  0  0  0  0  0  0  0  0  0  0  0
  128.2667  133.0918  157.5747 H   0  0  0  0  0  0  0  0  0  0  0  0
  129.1077  134.1977  156.4660 H   0  0  0  0  0  0  0  0  0  0  0  0
  127.6010  132.2936  160.0761 H   0  0  0  0  0  0  0  0  0  0  0  0
  125.8336  131.1546  161.3483 H   0  0  0  0  0  0  0  0  0  0  0  0
  123.9170  132.4280  162.2157 H   0  0  0  0  0  0  0  0  0  0  0  0
  123.5595  135.9432  161.7085 H   0  0  0  0  0  0  0  0  0  0  0  0
  125.5232  136.0199  160.5522 H   0  0  0  0  0  0  0  0  0  0  0  0
  1  2  1  0
  1 22  1  0
  1 23  1  0
  1 24  1  0
  2  3  1  1
  2  4  1  0
  2 13  1  0
  4  5  1  0
  4  6  1  0
  4  7  1  0
  7 12  1  0
  7  8  2  0
  8  9  1  0
  8 25  1  0
  9 10  1  0
  9 26  1  0
  9 27  1  0
 10 11  1  0
 10 28  1  0
 10 29  1  0
 11 12  1  0
 11 30  1  0
 11 31  1  0
 12 32  1  0
 12 33  1  0
 13 14  2  0
 13 15  1  0
 15 21  1  0
 15 16  2  0
 16 17  1  0
 16 34  1  0
 17 18  2  0
 17 35  1  0
 18 19  1  0
 18 36  1  0
 19 20  1  0
 19 21  2  0
 20 37  1  0
 21 38  1  0
M  CHG  1   4   1
M  END
>  <DOCK_score>  (1) 
-41.703625

>  <SMILES>  (1) 
C[C@H]([NH2+]C1=CCCCC1)C(=O)c1cccc(O)c1

$$$$
