Cn1c(=[NH+]C2=C[C@@H](Nc3cccc(O)c3)CCC2)[nH]c2cccc(F)c21
     RDKit          3D

 48 51  0  0  1  0  0  0  0  0999 V2000
  132.7760  138.9933  163.1770 C   0  0  0  0  0  0  0  0  0  0  0  0
  133.0450  138.5629  161.8028 N   0  0  0  0  0  0  0  0  0  0  0  0
  132.2966  137.6759  161.0789 C   0  0  0  0  0  0  0  0  0  0  0  0
  131.2090  137.0641  161.5044 N   0  0  0  0  0  0  0  0  0  0  0  0
  130.6345  137.4943  162.1569 H   0  0  0  0  0  0  0  0  0  0  0  0
  130.8928  135.8305  161.0287 C   0  0  0  0  0  0  0  0  0  0  0  0
  129.6200  135.4989  160.9614 C   0  0  0  0  0  0  0  0  0  0  0  0
  129.1292  134.1698  160.4657 C   0  0  1  0  0  0  0  0  0  0  0  0
  128.8391  133.5536  161.3168 H   0  0  0  0  0  0  0  0  0  0  0  0
  127.9681  134.3743  159.5961 N   0  0  0  0  0  0  0  0  0  0  0  0
  126.7386  133.7994  159.9259 C   0  0  0  0  0  0  0  0  0  0  0  0
  126.4197  132.5272  159.4665 C   0  0  0  0  0  0  0  0  0  0  0  0
  125.2059  131.9571  159.7968 C   0  0  0  0  0  0  0  0  0  0  0  0
  124.3013  132.6536  160.5760 C   0  0  0  0  0  0  0  0  0  0  0  0
  124.6122  133.9263  161.0334 C   0  0  0  0  0  0  0  0  0  0  0  0
  123.7215  134.6100  161.7990 O   0  0  0  0  0  0  0  0  0  0  0  0
  125.8315  134.5002  160.7086 C   0  0  0  0  0  0  0  0  0  0  0  0
  130.2334  133.4606  159.6790 C   0  0  0  0  0  0  0  0  0  0  0  0
  131.5179  133.4805  160.5168 C   0  0  0  0  0  0  0  0  0  0  0  0
  132.0190  134.9231  160.6111 C   0  0  0  0  0  0  0  0  0  0  0  0
  132.8572  137.5314  159.8393 N   0  0  0  0  0  0  0  0  0  0  0  0
  132.5236  136.9636  159.1271 H   0  0  0  0  0  0  0  0  0  0  0  0
  133.9895  138.3402  159.7762 C   0  0  0  0  0  0  0  0  0  0  0  0
  134.9226  138.5805  158.7767 C   0  0  0  0  0  0  0  0  0  0  0  0
  135.9665  139.4550  159.0042 C   0  0  0  0  0  0  0  0  0  0  0  0
  136.0873  140.0952  160.2257 C   0  0  0  0  0  0  0  0  0  0  0  0
  135.1633  139.8633  161.2278 C   0  0  0  0  0  0  0  0  0  0  0  0
  135.2847  140.4894  162.4188 F   0  0  0  0  0  0  0  0  0  0  0  0
  134.1097  138.9843  161.0075 C   0  0  0  0  0  0  0  0  0  0  0  0
  133.2842  138.3258  163.8729 H   0  0  0  0  0  0  0  0  0  0  0  0
  133.1411  140.0107  163.3172 H   0  0  0  0  0  0  0  0  0  0  0  0
  131.7025  138.9637  163.3635 H   0  0  0  0  0  0  0  0  0  0  0  0
  128.8872  136.2250  161.2808 H   0  0  0  0  0  0  0  0  0  0  0  0
  128.0531  134.9089  158.7912 H   0  0  0  0  0  0  0  0  0  0  0  0
  127.1231  131.9826  158.8540 H   0  0  0  0  0  0  0  0  0  0  0  0
  124.9612  130.9668  159.4418 H   0  0  0  0  0  0  0  0  0  0  0  0
  123.3515  132.2065  160.8295 H   0  0  0  0  0  0  0  0  0  0  0  0
  124.0267  135.4867  162.0694 H   0  0  0  0  0  0  0  0  0  0  0  0
  126.0749  135.4907  161.0634 H   0  0  0  0  0  0  0  0  0  0  0  0
  130.4031  133.9807  158.7362 H   0  0  0  0  0  0  0  0  0  0  0  0
  129.9395  132.4294  159.4838 H   0  0  0  0  0  0  0  0  0  0  0  0
  131.3090  133.0994  161.5164 H   0  0  0  0  0  0  0  0  0  0  0  0
  132.2761  132.8599  160.0393 H   0  0  0  0  0  0  0  0  0  0  0  0
  132.8246  134.9786  161.3433 H   0  0  0  0  0  0  0  0  0  0  0  0
  132.3953  135.2392  159.6382 H   0  0  0  0  0  0  0  0  0  0  0  0
  134.8323  138.0833  157.8222 H   0  0  0  0  0  0  0  0  0  0  0  0
  136.6919  139.6404  158.2259 H   0  0  0  0  0  0  0  0  0  0  0  0
  136.9061  140.7785  160.3965 H   0  0  0  0  0  0  0  0  0  0  0  0
  1  2  1  0
  1 30  1  0
  1 31  1  0
  1 32  1  0
  2 29  1  0
  2  3  1  0
  3  4  2  0
  3 21  1  0
  4  5  1  0
  4  6  1  0
  6 20  1  0
  6  7  2  0
  7  8  1  0
  7 33  1  0
  8  9  1  1
  8 10  1  0
  8 18  1  0
 10 11  1  0
 10 34  1  0
 11 17  1  0
 11 12  2  0
 12 13  1  0
 12 35  1  0
 13 14  2  0
 13 36  1  0
 14 15  1  0
 14 37  1  0
 15 16  1  0
 15 17  2  0
 16 38  1  0
 17 39  1  0
 18 19  1  0
 18 40  1  0
 18 41  1  0
 19 20  1  0
 19 42  1  0
 19 43  1  0
 20 44  1  0
 20 45  1  0
 21 22  1  0
 21 23  1  0
 23 29  2  0
 23 24  1  0
 24 25  2  0
 24 46  1  0
 25 26  1  0
 25 47  1  0
 26 27  2  0
 26 48  1  0
 27 28  1  0
 27 29  1  0
M  CHG  1   4   1
M  END
>  <DOCK_score>  (1) 
-43.974342

>  <SMILES>  (1) 
Cn1c(=[NH+]C2=C[C@@H](Nc3cccc(O)c3)CCC2)[nH]c2cccc(F)c21

$$$$
