CC(C)(O[C@H]1C[C@@H]([NH+]=C(NC2CC=CC2)N[C@H]2CCC(=O)NC2)C1)C(F)(F)F
     RDKit          3D

 58 60  0  0  1  0  0  0  0  0999 V2000
  133.7062  140.4405  162.4080 C   0  0  0  0  0  0  0  0  0  0  0  0
  134.7998  139.6170  161.7248 C   0  0  0  0  0  0  0  0  0  0  0  0
  135.6096  138.8662  162.7840 C   0  0  0  0  0  0  0  0  0  0  0  0
  134.2002  138.6783  160.8298 O   0  0  0  0  0  0  0  0  0  0  0  0
  133.3120  137.7559  161.4641 C   0  0  1  0  0  0  0  0  0  0  0  0
  133.2323  137.9164  162.5395 H   0  0  0  0  0  0  0  0  0  0  0  0
  131.9520  137.6258  160.7583 C   0  0  0  0  0  0  0  0  0  0  0  0
  132.0378  136.1168  161.0417 C   0  0  1  0  0  0  0  0  0  0  0  0
  131.6086  135.8275  162.0009 H   0  0  0  0  0  0  0  0  0  0  0  0
  131.5661  135.2837  159.9328 N   0  0  0  0  0  0  0  0  0  0  0  0
  132.1868  134.9923  159.2467 H   0  0  0  0  0  0  0  0  0  0  0  0
  130.3131  134.9297  159.8709 C   0  0  0  0  0  0  0  0  0  0  0  0
  129.8702  134.1480  158.8304 N   0  0  0  0  0  0  0  0  0  0  0  0
  130.7803  133.1936  158.1924 C   0  0  0  0  0  0  0  0  0  0  0  0
  130.0243  132.2905  157.1903 C   0  0  0  0  0  0  0  0  0  0  0  0
  130.6692  130.9312  157.3369 C   0  0  0  0  0  0  0  0  0  0  0  0
  131.3642  130.8568  158.4393 C   0  0  0  0  0  0  0  0  0  0  0  0
  131.2981  132.1532  159.2125 C   0  0  0  0  0  0  0  0  0  0  0  0
  129.4344  135.3382  160.8462 N   0  0  0  0  0  0  0  0  0  0  0  0
  128.0261  134.9403  160.7766 C   0  0  1  0  0  0  0  0  0  0  0  0
  127.7315  134.8188  159.7343 H   0  0  0  0  0  0  0  0  0  0  0  0
  127.8271  133.6188  161.5285 C   0  0  0  0  0  0  0  0  0  0  0  0
  126.3950  133.1354  161.2861 C   0  0  0  0  0  0  0  0  0  0  0  0
  125.4281  134.2572  161.5350 C   0  0  0  0  0  0  0  0  0  0  0  0
  124.2599  133.9806  161.7067 O   0  0  0  0  0  0  0  0  0  0  0  0
  125.7853  135.5414  161.5770 N   0  0  0  0  0  0  0  0  0  0  0  0
  127.1568  136.0132  161.4337 C   0  0  0  0  0  0  0  0  0  0  0  0
  133.5658  136.2877  161.0769 C   0  0  0  0  0  0  0  0  0  0  0  0
  135.7258  140.5493  160.9411 C   0  0  0  0  0  0  0  0  0  0  0  0
  136.3129  141.4682  161.8174 F   0  0  0  0  0  0  0  0  0  0  0  0
  136.7258  139.7963  160.3165 F   0  0  0  0  0  0  0  0  0  0  0  0
  134.9855  141.2358  159.9726 F   0  0  0  0  0  0  0  0  0  0  0  0
  133.0467  139.7764  162.9664 H   0  0  0  0  0  0  0  0  0  0  0  0
  134.1636  141.1566  163.0908 H   0  0  0  0  0  0  0  0  0  0  0  0
  133.1293  140.9754  161.6535 H   0  0  0  0  0  0  0  0  0  0  0  0
  136.3886  138.2795  162.2974 H   0  0  0  0  0  0  0  0  0  0  0  0
  136.0669  139.5822  163.4667 H   0  0  0  0  0  0  0  0  0  0  0  0
  134.9498  138.2021  163.3424 H   0  0  0  0  0  0  0  0  0  0  0  0
  131.9852  137.8735  159.6974 H   0  0  0  0  0  0  0  0  0  0  0  0
  131.1374  138.1232  161.2849 H   0  0  0  0  0  0  0  0  0  0  0  0
  128.9552  134.2283  158.5186 H   0  0  0  0  0  0  0  0  0  0  0  0
  131.6078  133.7101  157.7062 H   0  0  0  0  0  0  0  0  0  0  0  0
  128.9668  132.2386  157.4488 H   0  0  0  0  0  0  0  0  0  0  0  0
  130.1497  132.6634  156.1737 H   0  0  0  0  0  0  0  0  0  0  0  0
  130.5686  130.1273  156.6227 H   0  0  0  0  0  0  0  0  0  0  0  0
  131.9136  129.9831  158.7572 H   0  0  0  0  0  0  0  0  0  0  0  0
  132.2890  132.4328  159.5703 H   0  0  0  0  0  0  0  0  0  0  0  0
  130.6035  132.0621  160.0478 H   0  0  0  0  0  0  0  0  0  0  0  0
  129.7468  135.8896  161.5804 H   0  0  0  0  0  0  0  0  0  0  0  0
  128.5329  132.8756  161.1576 H   0  0  0  0  0  0  0  0  0  0  0  0
  127.9860  133.7760  162.5954 H   0  0  0  0  0  0  0  0  0  0  0  0
  126.1725  132.3091  161.9613 H   0  0  0  0  0  0  0  0  0  0  0  0
  126.2984  132.7963  160.2546 H   0  0  0  0  0  0  0  0  0  0  0  0
  125.0887  136.2028  161.7110 H   0  0  0  0  0  0  0  0  0  0  0  0
  127.5606  136.2512  162.4177 H   0  0  0  0  0  0  0  0  0  0  0  0
  127.1632  136.9107  160.8150 H   0  0  0  0  0  0  0  0  0  0  0  0
  134.0522  135.7064  161.8602 H   0  0  0  0  0  0  0  0  0  0  0  0
  134.0409  136.1688  160.1032 H   0  0  0  0  0  0  0  0  0  0  0  0
  1  2  1  0
  1 33  1  0
  1 34  1  0
  1 35  1  0
  2  3  1  0
  2  4  1  0
  2 29  1  0
  3 36  1  0
  3 37  1  0
  3 38  1  0
  4  5  1  0
  5  6  1  1
  5 28  1  0
  5  7  1  0
  7  8  1  0
  7 39  1  0
  7 40  1  0
  8  9  1  1
  8 10  1  0
  8 28  1  0
 10 11  1  0
 12 10  2  0
 12 13  1  0
 12 19  1  0
 13 14  1  0
 13 41  1  0
 14 18  1  0
 14 15  1  0
 14 42  1  0
 15 16  1  0
 15 43  1  0
 15 44  1  0
 16 17  2  0
 16 45  1  0
 17 18  1  0
 17 46  1  0
 18 47  1  0
 18 48  1  0
 19 20  1  0
 19 49  1  0
 20 21  1  6
 20 27  1  0
 20 22  1  0
 22 23  1  0
 22 50  1  0
 22 51  1  0
 23 24  1  0
 23 52  1  0
 23 53  1  0
 24 25  2  0
 24 26  1  0
 26 27  1  0
 26 54  1  0
 27 55  1  0
 27 56  1  0
 28 57  1  0
 28 58  1  0
 29 30  1  0
 29 31  1  0
 29 32  1  0
M  CHG  1  10   1
M  END
>  <DOCK_score>  (1) 
-48.304825

>  <SMILES>  (1) 
CC(C)(O[C@H]1C[C@@H]([NH+]=C(NC2CC=CC2)N[C@H]2CCC(=O)NC2)C1)C(F)(F)F

$$$$
