OC[C@H]1C[C@@H](Nc2ccc(-c3n[nH]cc3C[NH2+]Cc3ccc(F)cc3)o2)C1
     RDKit          3D

 51 54  0  0  1  0  0  0  0  0999 V2000
  127.6975  135.8228  167.1901 O   0  0  0  0  0  0  0  0  0  0  0  0
  126.6433  136.4385  166.4473 C   0  0  0  0  0  0  0  0  0  0  0  0
  127.2046  137.0108  165.1441 C   0  0  1  0  0  0  0  0  0  0  0  0
  127.9772  137.7617  165.3096 H   0  0  0  0  0  0  0  0  0  0  0  0
  127.6006  135.9351  164.1189 C   0  0  0  0  0  0  0  0  0  0  0  0
  127.0079  136.8569  163.0401 C   0  0  1  0  0  0  0  0  0  0  0  0
  127.7265  137.5655  162.6284 H   0  0  0  0  0  0  0  0  0  0  0  0
  126.2570  136.1418  162.0052 N   0  0  0  0  0  0  0  0  0  0  0  0
  126.8908  135.1810  161.2256 C   0  0  0  0  0  0  0  0  0  0  0  0
  126.3004  134.0890  160.6789 C   0  0  0  0  0  0  0  0  0  0  0  0
  127.2994  133.3940  159.9689 C   0  0  0  0  0  0  0  0  0  0  0  0
  128.4536  134.0940  160.1263 C   0  0  0  0  0  0  0  0  0  0  0  0
  129.7685  133.7344  159.5565 C   0  0  0  0  0  0  0  0  0  0  0  0
  130.0281  132.6807  158.8075 N   0  0  0  0  0  0  0  0  0  0  0  0
  131.3887  132.7078  158.4759 N   0  0  0  0  0  0  0  0  0  0  0  0
  131.8549  132.0531  157.9327 H   0  0  0  0  0  0  0  0  0  0  0  0
  131.9406  133.7996  159.0483 C   0  0  0  0  0  0  0  0  0  0  0  0
  130.9693  134.4573  159.7170 C   0  0  0  0  0  0  0  0  0  0  0  0
  131.1390  135.7334  160.5005 C   0  0  0  0  0  0  0  0  0  0  0  0
  130.9025  136.8845  159.6191 N   0  0  0  0  0  0  0  0  0  0  0  0
  131.5646  136.8667  158.8577 H   0  0  0  0  0  0  0  0  0  0  0  0
  129.9645  136.8383  159.2502 H   0  0  0  0  0  0  0  0  0  0  0  0
  131.0678  138.1283  160.3827 C   0  0  0  0  0  0  0  0  0  0  0  0
  132.4687  138.1972  160.9338 C   0  0  0  0  0  0  0  0  0  0  0  0
  132.7464  137.6723  162.1822 C   0  0  0  0  0  0  0  0  0  0  0  0
  134.0320  137.7297  162.6861 C   0  0  0  0  0  0  0  0  0  0  0  0
  135.0394  138.3241  161.9452 C   0  0  0  0  0  0  0  0  0  0  0  0
  136.2951  138.3867  162.4396 F   0  0  0  0  0  0  0  0  0  0  0  0
  134.7588  138.8547  160.6975 C   0  0  0  0  0  0  0  0  0  0  0  0
  133.4739  138.7905  160.1930 C   0  0  0  0  0  0  0  0  0  0  0  0
  128.1914  135.1773  160.8875 O   0  0  0  0  0  0  0  0  0  0  0  0
  126.1197  137.4500  164.1466 C   0  0  0  0  0  0  0  0  0  0  0  0
  128.4146  136.4259  167.4288 H   0  0  0  0  0  0  0  0  0  0  0  0
  126.2042  137.2426  167.0379 H   0  0  0  0  0  0  0  0  0  0  0  0
  125.8785  135.6963  166.2185 H   0  0  0  0  0  0  0  0  0  0  0  0
  127.0579  134.9974  164.2384 H   0  0  0  0  0  0  0  0  0  0  0  0
  128.6776  135.7935  164.0286 H   0  0  0  0  0  0  0  0  0  0  0  0
  125.3178  136.3387  161.8640 H   0  0  0  0  0  0  0  0  0  0  0  0
  125.2613  133.8082  160.7672 H   0  0  0  0  0  0  0  0  0  0  0  0
  127.1726  132.4792  159.4088 H   0  0  0  0  0  0  0  0  0  0  0  0
  132.9771  134.0959  158.9811 H   0  0  0  0  0  0  0  0  0  0  0  0
  130.4239  135.7526  161.3229 H   0  0  0  0  0  0  0  0  0  0  0  0
  132.1524  135.7831  160.8990 H   0  0  0  0  0  0  0  0  0  0  0  0
  130.8922  138.9823  159.7286 H   0  0  0  0  0  0  0  0  0  0  0  0
  130.3524  138.1474  161.2051 H   0  0  0  0  0  0  0  0  0  0  0  0
  131.9594  137.2131  162.7620 H   0  0  0  0  0  0  0  0  0  0  0  0
  134.2496  137.3159  163.6597 H   0  0  0  0  0  0  0  0  0  0  0  0
  135.5438  139.3188  160.1189 H   0  0  0  0  0  0  0  0  0  0  0  0
  133.2547  139.2043  159.2198 H   0  0  0  0  0  0  0  0  0  0  0  0
  126.0011  138.5314  164.0785 H   0  0  0  0  0  0  0  0  0  0  0  0
  125.1722  136.9265  164.2735 H   0  0  0  0  0  0  0  0  0  0  0  0
  1  2  1  0
  1 33  1  0
  2  3  1  0
  2 34  1  0
  2 35  1  0
  3  4  1  1
  3 32  1  0
  3  5  1  0
  5  6  1  0
  5 36  1  0
  5 37  1  0
  6  7  1  6
  6  8  1  0
  6 32  1  0
  8  9  1  0
  8 38  1  0
  9 31  1  0
  9 10  2  0
 10 11  1  0
 10 39  1  0
 11 12  2  0
 11 40  1  0
 12 13  1  0
 12 31  1  0
 13 18  1  0
 13 14  2  0
 14 15  1  0
 15 16  1  0
 15 17  1  0
 17 18  2  0
 17 41  1  0
 18 19  1  0
 19 20  1  0
 19 42  1  0
 19 43  1  0
 20 21  1  0
 20 22  1  0
 20 23  1  0
 23 24  1  0
 23 44  1  0
 23 45  1  0
 24 30  1  0
 24 25  2  0
 25 26  1  0
 25 46  1  0
 26 27  2  0
 26 47  1  0
 27 28  1  0
 27 29  1  0
 29 30  2  0
 29 48  1  0
 30 49  1  0
 32 50  1  0
 32 51  1  0
M  CHG  1  20   1
M  END
>  <DOCK_score>  (1) 
-41.284943

>  <SMILES>  (1) 
OC[C@H]1C[C@@H](Nc2ccc(-c3n[nH]cc3C[NH2+]Cc3ccc(F)cc3)o2)C1

$$$$
