O=C1CCC(NC(NC2CC=CCC2)=[NH+][C@H]2COc3ccc(F)cc3C2)CN1
     RDKit          3D

 56 59  0  0  1  0  0  0  0  0999 V2000
  123.8577  133.6585  161.2517 O   0  0  0  0  0  0  0  0  0  0  0  0
  125.0263  133.8967  161.0316 C   0  0  0  0  0  0  0  0  0  0  0  0
  125.9221  132.7573  160.6384 C   0  0  0  0  0  0  0  0  0  0  0  0
  127.3873  133.1560  160.8315 C   0  0  0  0  0  0  0  0  0  0  0  0
  127.6079  134.5240  160.1749 C   0  0  2  0  0  0  0  0  0  0  0  0
  129.0355  134.8526  160.1912 N   0  0  0  0  0  0  0  0  0  0  0  0
  129.8394  134.4773  159.1408 C   0  0  0  0  0  0  0  0  0  0  0  0
  129.3035  133.7937  158.0751 N   0  0  0  0  0  0  0  0  0  0  0  0
  130.1303  132.8486  157.3206 C   0  0  1  0  0  0  0  0  0  0  0  0
  129.9995  131.4494  157.9242 C   0  0  0  0  0  0  0  0  0  0  0  0
  130.6166  130.4293  157.0127 C   0  0  0  0  0  0  0  0  0  0  0  0
  130.8897  130.6422  155.7655 C   0  0  0  0  0  0  0  0  0  0  0  0
  130.6364  131.9417  155.0591 C   0  0  0  0  0  0  0  0  0  0  0  0
  129.6540  132.7960  155.8634 C   0  0  0  0  0  0  0  0  0  0  0  0
  131.1095  134.7696  159.1553 N   0  0  0  0  0  0  0  0  0  0  0  0
  131.5824  134.9192  158.3218 H   0  0  0  0  0  0  0  0  0  0  0  0
  131.8228  134.8724  160.4307 C   0  0  1  0  0  0  0  0  0  0  0  0
  131.1356  134.6739  161.2532 H   0  0  0  0  0  0  0  0  0  0  0  0
  132.9738  133.8587  160.4626 C   0  0  0  0  0  0  0  0  0  0  0  0
  133.5840  133.9101  161.7529 O   0  0  0  0  0  0  0  0  0  0  0  0
  133.9178  135.1303  162.2497 C   0  0  0  0  0  0  0  0  0  0  0  0
  134.8187  135.1918  163.3081 C   0  0  0  0  0  0  0  0  0  0  0  0
  135.1791  136.4110  163.8441 C   0  0  0  0  0  0  0  0  0  0  0  0
  134.6429  137.5785  163.3276 C   0  0  0  0  0  0  0  0  0  0  0  0
  134.9932  138.7734  163.8519 F   0  0  0  0  0  0  0  0  0  0  0  0
  133.7488  137.5203  162.2742 C   0  0  0  0  0  0  0  0  0  0  0  0
  133.3859  136.2981  161.7326 C   0  0  0  0  0  0  0  0  0  0  0  0
  132.4150  136.2762  160.5792 C   0  0  0  0  0  0  0  0  0  0  0  0
  126.8296  135.5796  160.9611 C   0  0  0  0  0  0  0  0  0  0  0  0
  125.4473  135.1563  161.1521 N   0  0  0  0  0  0  0  0  0  0  0  0
  125.7503  132.5061  159.5917 H   0  0  0  0  0  0  0  0  0  0  0  0
  125.6981  131.8897  161.2591 H   0  0  0  0  0  0  0  0  0  0  0  0
  128.0342  132.4149  160.3621 H   0  0  0  0  0  0  0  0  0  0  0  0
  127.6131  133.2193  161.8961 H   0  0  0  0  0  0  0  0  0  0  0  0
  127.2506  134.4973  159.1455 H   0  0  0  0  0  0  0  0  0  0  0  0
  129.4137  135.3348  160.9431 H   0  0  0  0  0  0  0  0  0  0  0  0
  128.3779  133.9373  157.8228 H   0  0  0  0  0  0  0  0  0  0  0  0
  131.1737  133.1621  157.3540 H   0  0  0  0  0  0  0  0  0  0  0  0
  128.9437  131.2174  158.0639 H   0  0  0  0  0  0  0  0  0  0  0  0
  130.5041  131.4229  158.8901 H   0  0  0  0  0  0  0  0  0  0  0  0
  130.8475  129.4573  157.4230 H   0  0  0  0  0  0  0  0  0  0  0  0
  131.3268  129.8341  155.1977 H   0  0  0  0  0  0  0  0  0  0  0  0
  130.2172  131.7413  154.0730 H   0  0  0  0  0  0  0  0  0  0  0  0
  131.5775  132.4804  154.9491 H   0  0  0  0  0  0  0  0  0  0  0  0
  129.6231  133.8046  155.4515 H   0  0  0  0  0  0  0  0  0  0  0  0
  128.6599  132.3513  155.8187 H   0  0  0  0  0  0  0  0  0  0  0  0
  132.5857  132.8566  160.2798 H   0  0  0  0  0  0  0  0  0  0  0  0
  133.7082  134.1128  159.6983 H   0  0  0  0  0  0  0  0  0  0  0  0
  135.2370  134.2818  163.7120 H   0  0  0  0  0  0  0  0  0  0  0  0
  135.8784  136.4546  164.6660 H   0  0  0  0  0  0  0  0  0  0  0  0
  133.3315  138.4317  161.8722 H   0  0  0  0  0  0  0  0  0  0  0  0
  132.9356  136.5492  159.6614 H   0  0  0  0  0  0  0  0  0  0  0  0
  131.6128  136.9901  160.7667 H   0  0  0  0  0  0  0  0  0  0  0  0
  127.2982  135.7220  161.9348 H   0  0  0  0  0  0  0  0  0  0  0  0
  126.8483  136.5225  160.4145 H   0  0  0  0  0  0  0  0  0  0  0  0
  124.7922  135.8348  161.3789 H   0  0  0  0  0  0  0  0  0  0  0  0
  1  2  2  0
  2 30  1  0
  2  3  1  0
  3  4  1  0
  3 31  1  0
  3 32  1  0
  4  5  1  0
  4 33  1  0
  4 34  1  0
  5  6  1  0
  5 29  1  0
  5 35  1  6
  6 36  1  0
  7  6  1  0
  7  8  1  0
  7 15  2  0
  8  9  1  0
  8 37  1  0
  9 14  1  0
  9 10  1  0
  9 38  1  6
 10 11  1  0
 10 39  1  0
 10 40  1  0
 11 12  2  0
 11 41  1  0
 12 13  1  0
 12 42  1  0
 13 14  1  0
 13 43  1  0
 13 44  1  0
 14 45  1  0
 14 46  1  0
 15 16  1  0
 15 17  1  0
 17 18  1  1
 17 28  1  0
 17 19  1  0
 19 20  1  0
 19 47  1  0
 19 48  1  0
 20 21  1  0
 21 27  2  0
 21 22  1  0
 22 23  2  0
 22 49  1  0
 23 24  1  0
 23 50  1  0
 24 25  1  0
 24 26  2  0
 26 27  1  0
 26 51  1  0
 27 28  1  0
 28 52  1  0
 28 53  1  0
 29 30  1  0
 29 54  1  0
 29 55  1  0
 30 56  1  0
M  CHG  1  15   1
M  END
>  <DOCK_score>  (1) 
-50.327583

>  <SMILES>  (1) 
O=C1CCC(NC(NC2CC=CCC2)=[NH+][C@H]2COc3ccc(F)cc3C2)CN1

$$$$
