Cc1ccc(Cl)c(C[NH+]=C(NCCN2CCNC2=O)NC2CCCC[C@@H]2C)n1
     RDKit          3D

 60 62  0  0  1  0  0  0  0  0999 V2000
  135.2948  141.1338  162.7975 C   0  0  0  0  0  0  0  0  0  0  0  0
  135.2370  140.5189  161.4228 C   0  0  0  0  0  0  0  0  0  0  0  0
  136.1737  140.8809  160.4729 C   0  0  0  0  0  0  0  0  0  0  0  0
  136.1123  140.3099  159.2115 C   0  0  0  0  0  0  0  0  0  0  0  0
  135.1086  139.3869  158.9526 C   0  0  0  0  0  0  0  0  0  0  0  0
  134.9870  138.6344  157.3929 Cl  0  0  0  0  0  0  0  0  0  0  0  0
  134.2040  139.0778  159.9521 C   0  0  0  0  0  0  0  0  0  0  0  0
  133.1070  138.0805  159.6816 C   0  0  0  0  0  0  0  0  0  0  0  0
  132.2841  137.9221  160.8832 N   0  0  0  0  0  0  0  0  0  0  0  0
  132.4934  138.4271  161.6846 H   0  0  0  0  0  0  0  0  0  0  0  0
  131.2707  137.1024  160.8758 C   0  0  0  0  0  0  0  0  0  0  0  0
  130.4984  136.9536  162.0033 N   0  0  0  0  0  0  0  0  0  0  0  0
  131.0951  137.1340  163.3290 C   0  0  0  0  0  0  0  0  0  0  0  0
  130.3783  138.2707  164.0606 C   0  0  0  0  0  0  0  0  0  0  0  0
  128.9585  137.9397  164.2050 N   0  0  0  0  0  0  0  0  0  0  0  0
  128.3633  137.2169  165.3389 C   0  0  0  0  0  0  0  0  0  0  0  0
  126.8649  137.1464  164.9861 C   0  0  0  0  0  0  0  0  0  0  0  0
  126.7763  137.8288  163.6866 N   0  0  0  0  0  0  0  0  0  0  0  0
  127.9972  138.2422  163.3227 C   0  0  0  0  0  0  0  0  0  0  0  0
  128.2134  138.8387  162.2854 O   0  0  0  0  0  0  0  0  0  0  0  0
  130.9739  136.3866  159.7400 N   0  0  0  0  0  0  0  0  0  0  0  0
  129.8349  135.4653  159.7314 C   0  0  1  0  0  0  0  0  0  0  0  0
  128.5782  136.2123  159.2803 C   0  0  0  0  0  0  0  0  0  0  0  0
  127.3887  135.2500  159.2713 C   0  0  0  0  0  0  0  0  0  0  0  0
  127.6717  134.0980  158.3051 C   0  0  0  0  0  0  0  0  0  0  0  0
  128.9285  133.3511  158.7564 C   0  0  0  0  0  0  0  0  0  0  0  0
  130.1180  134.3133  158.7652 C   0  0  2  0  0  0  0  0  0  0  0  0
  130.2719  134.7101  157.7617 H   0  0  0  0  0  0  0  0  0  0  0  0
  131.3747  133.5663  159.2164 C   0  0  0  0  0  0  0  0  0  0  0  0
  134.2940  139.6417  161.1408 N   0  0  0  0  0  0  0  0  0  0  0  0
  135.9229  140.5205  163.4437 H   0  0  0  0  0  0  0  0  0  0  0  0
  135.7144  142.1374  162.7292 H   0  0  0  0  0  0  0  0  0  0  0  0
  134.2889  141.1880  163.2138 H   0  0  0  0  0  0  0  0  0  0  0  0
  136.9436  141.6001  160.7106 H   0  0  0  0  0  0  0  0  0  0  0  0
  136.8304  140.5741  158.4494 H   0  0  0  0  0  0  0  0  0  0  0  0
  133.5470  137.1201  159.4134 H   0  0  0  0  0  0  0  0  0  0  0  0
  132.4857  138.4377  158.8603 H   0  0  0  0  0  0  0  0  0  0  0  0
  129.5583  136.7291  161.9210 H   0  0  0  0  0  0  0  0  0  0  0  0
  130.9933  136.2122  163.9018 H   0  0  0  0  0  0  0  0  0  0  0  0
  132.1514  137.3802  163.2215 H   0  0  0  0  0  0  0  0  0  0  0  0
  130.8223  138.4048  165.0470 H   0  0  0  0  0  0  0  0  0  0  0  0
  130.4801  139.1925  163.4879 H   0  0  0  0  0  0  0  0  0  0  0  0
  128.7870  136.2157  165.4194 H   0  0  0  0  0  0  0  0  0  0  0  0
  128.5105  137.7712  166.2659 H   0  0  0  0  0  0  0  0  0  0  0  0
  126.2670  137.6679  165.7337 H   0  0  0  0  0  0  0  0  0  0  0  0
  126.5454  136.1082  164.8956 H   0  0  0  0  0  0  0  0  0  0  0  0
  125.9630  137.9591  163.1743 H   0  0  0  0  0  0  0  0  0  0  0  0
  131.5188  136.4916  158.9444 H   0  0  0  0  0  0  0  0  0  0  0  0
  129.6811  135.0684  160.7350 H   0  0  0  0  0  0  0  0  0  0  0  0
  128.3766  137.0330  159.9687 H   0  0  0  0  0  0  0  0  0  0  0  0
  128.7321  136.6091  158.2768 H   0  0  0  0  0  0  0  0  0  0  0  0
  126.4933  135.7822  158.9499 H   0  0  0  0  0  0  0  0  0  0  0  0
  127.2348  134.8532  160.2748 H   0  0  0  0  0  0  0  0  0  0  0  0
  127.8255  134.4949  157.3016 H   0  0  0  0  0  0  0  0  0  0  0  0
  126.8243  133.4126  158.2988 H   0  0  0  0  0  0  0  0  0  0  0  0
  128.7746  132.9542  159.7598 H   0  0  0  0  0  0  0  0  0  0  0  0
  129.1301  132.5304  158.0679 H   0  0  0  0  0  0  0  0  0  0  0  0
  131.5764  132.7456  158.5281 H   0  0  0  0  0  0  0  0  0  0  0  0
  132.2222  134.2518  159.2228 H   0  0  0  0  0  0  0  0  0  0  0  0
  131.2209  133.1694  160.2199 H   0  0  0  0  0  0  0  0  0  0  0  0
  1  2  1  0
  1 31  1  0
  1 32  1  0
  1 33  1  0
  2 30  2  0
  2  3  1  0
  3  4  2  0
  3 34  1  0
  4  5  1  0
  4 35  1  0
  5  6  1  0
  5  7  2  0
  7  8  1  0
  7 30  1  0
  8  9  1  0
  8 36  1  0
  8 37  1  0
  9 10  1  0
 11  9  2  0
 11 12  1  0
 11 21  1  0
 12 13  1  0
 12 38  1  0
 13 14  1  0
 13 39  1  0
 13 40  1  0
 14 15  1  0
 14 41  1  0
 14 42  1  0
 15 19  1  0
 15 16  1  0
 16 17  1  0
 16 43  1  0
 16 44  1  0
 17 18  1  0
 17 45  1  0
 17 46  1  0
 18 19  1  0
 18 47  1  0
 19 20  2  0
 21 22  1  0
 21 48  1  0
 22 27  1  0
 22 23  1  0
 22 49  1  1
 23 24  1  0
 23 50  1  0
 23 51  1  0
 24 25  1  0
 24 52  1  0
 24 53  1  0
 25 26  1  0
 25 54  1  0
 25 55  1  0
 26 27  1  0
 26 56  1  0
 26 57  1  0
 27 28  1  6
 27 29  1  0
 29 58  1  0
 29 59  1  0
 29 60  1  0
M  CHG  1   9   1
M  END
>  <DOCK_score>  (1) 
-44.477535

>  <SMILES>  (1) 
Cc1ccc(Cl)c(C[NH+]=C(NCCN2CCNC2=O)NC2CCCC[C@@H]2C)n1

$$$$
