CCC=Cc1ccc(Nc2[nH]cc(-c3cccc(O)c3)[nH+]2)cc1
     RDKit          3D

 43 45  0  0  1  0  0  0  0  0999 V2000
  135.3481  136.7437  167.3501 C   0  0  0  0  0  0  0  0  0  0  0  0
  134.3326  135.6015  167.2789 C   0  0  0  0  0  0  0  0  0  0  0  0
  133.9555  135.3533  165.8412 C   0  0  0  0  0  0  0  0  0  0  0  0
  132.9312  136.0013  165.3029 C   0  0  0  0  0  0  0  0  0  0  0  0
  132.5617  135.7580  163.8933 C   0  0  0  0  0  0  0  0  0  0  0  0
  133.4897  135.1973  163.0137 C   0  0  0  0  0  0  0  0  0  0  0  0
  133.1423  134.9720  161.6995 C   0  0  0  0  0  0  0  0  0  0  0  0
  131.8689  135.3024  161.2489 C   0  0  0  0  0  0  0  0  0  0  0  0
  131.5200  135.0732  159.9166 N   0  0  0  0  0  0  0  0  0  0  0  0
  130.2047  134.7937  159.5832 C   0  0  0  0  0  0  0  0  0  0  0  0
  129.6046  135.0987  158.4000 N   0  0  0  0  0  0  0  0  0  0  0  0
  130.0163  135.5497  157.6464 H   0  0  0  0  0  0  0  0  0  0  0  0
  128.3090  134.6492  158.4701 C   0  0  0  0  0  0  0  0  0  0  0  0
  128.1542  134.0829  159.6927 C   0  0  0  0  0  0  0  0  0  0  0  0
  126.9134  133.4605  160.2157 C   0  0  0  0  0  0  0  0  0  0  0  0
  126.6706  132.1034  160.0076 C   0  0  0  0  0  0  0  0  0  0  0  0
  125.5175  131.5258  160.4990 C   0  0  0  0  0  0  0  0  0  0  0  0
  124.5962  132.2913  161.1895 C   0  0  0  0  0  0  0  0  0  0  0  0
  124.8278  133.6442  161.3964 C   0  0  0  0  0  0  0  0  0  0  0  0
  123.9191  134.3931  162.0750 O   0  0  0  0  0  0  0  0  0  0  0  0
  125.9849  134.2313  160.9110 C   0  0  0  0  0  0  0  0  0  0  0  0
  129.3344  134.1867  160.3528 N   0  0  0  0  0  0  0  0  0  0  0  0
  129.5070  133.8632  161.2509 H   0  0  0  0  0  0  0  0  0  0  0  0
  130.9442  135.8658  162.1214 C   0  0  0  0  0  0  0  0  0  0  0  0
  131.2840  136.0886  163.4380 C   0  0  0  0  0  0  0  0  0  0  0  0
  135.6209  136.9232  168.3900 H   0  0  0  0  0  0  0  0  0  0  0  0
  136.2386  136.4740  166.7822 H   0  0  0  0  0  0  0  0  0  0  0  0
  134.9082  137.6475  166.9285 H   0  0  0  0  0  0  0  0  0  0  0  0
  133.4421  135.8711  167.8469 H   0  0  0  0  0  0  0  0  0  0  0  0
  134.7724  134.6976  167.7005 H   0  0  0  0  0  0  0  0  0  0  0  0
  134.5195  134.6478  165.2491 H   0  0  0  0  0  0  0  0  0  0  0  0
  132.3674  136.7068  165.8950 H   0  0  0  0  0  0  0  0  0  0  0  0
  134.4790  134.9408  163.3629 H   0  0  0  0  0  0  0  0  0  0  0  0
  133.8598  134.5387  161.0184 H   0  0  0  0  0  0  0  0  0  0  0  0
  132.1984  135.1097  159.2243 H   0  0  0  0  0  0  0  0  0  0  0  0
  127.5572  134.7308  157.6990 H   0  0  0  0  0  0  0  0  0  0  0  0
  127.3863  131.5036  159.4651 H   0  0  0  0  0  0  0  0  0  0  0  0
  125.3323  130.4737  160.3401 H   0  0  0  0  0  0  0  0  0  0  0  0
  123.6936  131.8354  161.5688 H   0  0  0  0  0  0  0  0  0  0  0  0
  124.1673  135.3229  162.1687 H   0  0  0  0  0  0  0  0  0  0  0  0
  126.1662  135.2838  161.0709 H   0  0  0  0  0  0  0  0  0  0  0  0
  129.9572  136.1250  161.7676 H   0  0  0  0  0  0  0  0  0  0  0  0
  130.5641  136.5228  164.1161 H   0  0  0  0  0  0  0  0  0  0  0  0
  1  2  1  0
  1 26  1  0
  1 27  1  0
  1 28  1  0
  2  3  1  0
  2 29  1  0
  2 30  1  0
  3  4  2  0
  3 31  1  0
  4  5  1  0
  4 32  1  0
  5 25  2  0
  5  6  1  0
  6  7  2  0
  6 33  1  0
  7  8  1  0
  7 34  1  0
  8  9  1  0
  8 24  2  0
  9 35  1  0
 10  9  1  0
 10 22  2  0
 10 11  1  0
 11 12  1  0
 11 13  1  0
 13 14  2  0
 13 36  1  0
 14 15  1  0
 14 22  1  0
 15 21  1  0
 15 16  2  0
 16 17  1  0
 16 37  1  0
 17 18  2  0
 17 38  1  0
 18 19  1  0
 18 39  1  0
 19 20  1  0
 19 21  2  0
 20 40  1  0
 21 41  1  0
 22 23  1  0
 24 25  1  0
 24 42  1  0
 25 43  1  0
M  CHG  1  22   1
M  END
>  <DOCK_score>  (1) 
-43.3256

>  <SMILES>  (1) 
CCC=Cc1ccc(Nc2[nH]cc(-c3cccc(O)c3)[nH+]2)cc1

$$$$
