c1ccc(CC(CNc2[nH]cc(-c3coc4ccncc34)[nH+]2)Cc2ccccc2)cc1
     RDKit          3D

 56 60  0  0  1  0  0  0  0  0999 V2000
  134.4680  140.5135  160.9542 C   0  0  0  0  0  0  0  0  0  0  0  0
  133.3877  140.7483  161.7841 C   0  0  0  0  0  0  0  0  0  0  0  0
  132.1724  140.1429  161.5247 C   0  0  0  0  0  0  0  0  0  0  0  0
  132.0374  139.3023  160.4357 C   0  0  0  0  0  0  0  0  0  0  0  0
  130.7127  138.6419  160.1531 C   0  0  0  0  0  0  0  0  0  0  0  0
  130.6468  137.2984  160.8822 C   0  0  0  0  0  0  0  0  0  0  0  0
  129.5770  136.4178  160.2332 C   0  0  0  0  0  0  0  0  0  0  0  0
  130.1203  135.8044  159.0189 N   0  0  0  0  0  0  0  0  0  0  0  0
  130.1836  134.4257  158.9085 C   0  0  0  0  0  0  0  0  0  0  0  0
  129.7698  133.5357  159.8506 N   0  0  0  0  0  0  0  0  0  0  0  0
  129.3814  133.7505  160.7131 H   0  0  0  0  0  0  0  0  0  0  0  0
  130.0053  132.2740  159.3536 C   0  0  0  0  0  0  0  0  0  0  0  0
  130.5551  132.4324  158.1244 C   0  0  0  0  0  0  0  0  0  0  0  0
  130.9764  131.3431  157.2095 C   0  0  0  0  0  0  0  0  0  0  0  0
  131.4191  130.1132  157.5567 C   0  0  0  0  0  0  0  0  0  0  0  0
  131.7069  129.4003  156.4524 O   0  0  0  0  0  0  0  0  0  0  0  0
  131.4713  130.1154  155.3392 C   0  0  0  0  0  0  0  0  0  0  0  0
  131.5959  129.8648  153.9755 C   0  0  0  0  0  0  0  0  0  0  0  0
  131.2536  130.8562  153.0819 C   0  0  0  0  0  0  0  0  0  0  0  0
  130.8120  132.0334  153.4919 N   0  0  0  0  0  0  0  0  0  0  0  0
  130.6752  132.3233  154.7702 C   0  0  0  0  0  0  0  0  0  0  0  0
  130.9922  131.3772  155.7375 C   0  0  0  0  0  0  0  0  0  0  0  0
  130.6468  133.7627  157.8767 N   0  0  0  0  0  0  0  0  0  0  0  0
  131.0011  134.1605  157.0660 H   0  0  0  0  0  0  0  0  0  0  0  0
  130.2917  137.5326  162.3519 C   0  0  0  0  0  0  0  0  0  0  0  0
  130.6960  136.3294  163.1642 C   0  0  0  0  0  0  0  0  0  0  0  0
  129.8008  135.2942  163.3586 C   0  0  0  0  0  0  0  0  0  0  0  0
  130.1732  134.1883  164.0997 C   0  0  0  0  0  0  0  0  0  0  0  0
  131.4374  134.1222  164.6549 C   0  0  0  0  0  0  0  0  0  0  0  0
  132.3306  135.1601  164.4655 C   0  0  0  0  0  0  0  0  0  0  0  0
  131.9599  136.2636  163.7199 C   0  0  0  0  0  0  0  0  0  0  0  0
  133.1193  139.0629  159.6090 C   0  0  0  0  0  0  0  0  0  0  0  0
  134.3331  139.6725  159.8653 C   0  0  0  0  0  0  0  0  0  0  0  0
  135.4173  140.9868  161.1566 H   0  0  0  0  0  0  0  0  0  0  0  0
  133.4932  141.4051  162.6350 H   0  0  0  0  0  0  0  0  0  0  0  0
  131.3284  140.3263  162.1732 H   0  0  0  0  0  0  0  0  0  0  0  0
  130.6096  138.4785  159.0804 H   0  0  0  0  0  0  0  0  0  0  0  0
  129.9044  139.2847  160.5020 H   0  0  0  0  0  0  0  0  0  0  0  0
  131.6148  136.8017  160.8169 H   0  0  0  0  0  0  0  0  0  0  0  0
  129.2764  135.6368  160.9316 H   0  0  0  0  0  0  0  0  0  0  0  0
  128.7111  137.0280  159.9759 H   0  0  0  0  0  0  0  0  0  0  0  0
  130.4359  136.3640  158.2921 H   0  0  0  0  0  0  0  0  0  0  0  0
  129.7930  131.3376  159.8479 H   0  0  0  0  0  0  0  0  0  0  0  0
  131.5261  129.7562  158.5703 H   0  0  0  0  0  0  0  0  0  0  0  0
  131.9552  128.9090  153.6238 H   0  0  0  0  0  0  0  0  0  0  0  0
  131.3483  130.6678  152.0227 H   0  0  0  0  0  0  0  0  0  0  0  0
  130.3113  133.2960  155.0664 H   0  0  0  0  0  0  0  0  0  0  0  0
  130.8208  138.4124  162.7178 H   0  0  0  0  0  0  0  0  0  0  0  0
  129.2171  137.6898  162.4456 H   0  0  0  0  0  0  0  0  0  0  0  0
  128.8116  135.3476  162.9281 H   0  0  0  0  0  0  0  0  0  0  0  0
  129.4751  133.3777  164.2480 H   0  0  0  0  0  0  0  0  0  0  0  0
  131.7272  133.2600  165.2370 H   0  0  0  0  0  0  0  0  0  0  0  0
  133.3182  135.1086  164.8995 H   0  0  0  0  0  0  0  0  0  0  0  0
  132.6578  137.0745  163.5719 H   0  0  0  0  0  0  0  0  0  0  0  0
  133.0150  138.4027  158.7607 H   0  0  0  0  0  0  0  0  0  0  0  0
  135.1772  139.4888  159.2172 H   0  0  0  0  0  0  0  0  0  0  0  0
  1 33  2  0
  1  2  1  0
  1 34  1  0
  2  3  2  0
  2 35  1  0
  3  4  1  0
  3 36  1  0
  4  5  1  0
  4 32  2  0
  5  6  1  0
  5 37  1  0
  5 38  1  0
  6  7  1  0
  6 25  1  0
  6 39  1  0
  7  8  1  0
  7 40  1  0
  7 41  1  0
  8 42  1  0
  9  8  1  0
  9 23  2  0
  9 10  1  0
 10 11  1  0
 10 12  1  0
 12 13  2  0
 12 43  1  0
 13 14  1  0
 13 23  1  0
 14 22  1  0
 14 15  2  0
 15 16  1  0
 15 44  1  0
 16 17  1  0
 17 22  2  0
 17 18  1  0
 18 19  2  0
 18 45  1  0
 19 20  1  0
 19 46  1  0
 20 21  2  0
 21 22  1  0
 21 47  1  0
 23 24  1  0
 25 26  1  0
 25 48  1  0
 25 49  1  0
 26 31  1  0
 26 27  2  0
 27 28  1  0
 27 50  1  0
 28 29  2  0
 28 51  1  0
 29 30  1  0
 29 52  1  0
 30 31  2  0
 30 53  1  0
 31 54  1  0
 32 33  1  0
 32 55  1  0
 33 56  1  0
M  CHG  1  23   1
M  END
>  <DOCK_score>  (1) 
-59.216022

>  <SMILES>  (1) 
c1ccc(CC(CNc2[nH]cc(-c3coc4ccncc34)[nH+]2)Cc2ccccc2)cc1

$$$$
