C1=CCC(c2c[nH]c(NC(c3ccccc3)c3ccccc3)[nH+]2)=CC1
     RDKit          3D

 47 50  0  0  1  0  0  0  0  0999 V2000
  131.1447  130.0226  153.6548 C   0  0  0  0  0  0  0  0  0  0  0  0
  131.6144  129.6605  154.8087 C   0  0  0  0  0  0  0  0  0  0  0  0
  131.0224  130.1073  156.1090 C   0  0  0  0  0  0  0  0  0  0  0  0
  130.1745  131.3307  155.9295 C   0  0  0  0  0  0  0  0  0  0  0  0
  129.8662  132.1599  157.1127 C   0  0  0  0  0  0  0  0  0  0  0  0
  129.2096  131.7486  158.2286 C   0  0  0  0  0  0  0  0  0  0  0  0
  129.1462  132.8288  159.0739 N   0  0  0  0  0  0  0  0  0  0  0  0
  128.7389  132.8461  159.9540 H   0  0  0  0  0  0  0  0  0  0  0  0
  129.7572  133.8718  158.4481 C   0  0  0  0  0  0  0  0  0  0  0  0
  129.9033  135.1477  158.9647 N   0  0  0  0  0  0  0  0  0  0  0  0
  128.9034  135.6808  159.8933 C   0  0  0  0  0  0  0  0  0  0  0  0
  129.2935  137.0774  160.3041 C   0  0  0  0  0  0  0  0  0  0  0  0
  128.9319  137.5580  161.5488 C   0  0  0  0  0  0  0  0  0  0  0  0
  129.2938  138.8371  161.9276 C   0  0  0  0  0  0  0  0  0  0  0  0
  130.0082  139.6395  161.0576 C   0  0  0  0  0  0  0  0  0  0  0  0
  130.3653  139.1608  159.8110 C   0  0  0  0  0  0  0  0  0  0  0  0
  130.0079  137.8796  159.4342 C   0  0  0  0  0  0  0  0  0  0  0  0
  127.5570  135.7138  159.2171 C   0  0  0  0  0  0  0  0  0  0  0  0
  126.4044  135.5617  159.9648 C   0  0  0  0  0  0  0  0  0  0  0  0
  125.1690  135.5968  159.3453 C   0  0  0  0  0  0  0  0  0  0  0  0
  125.0870  135.7737  157.9767 C   0  0  0  0  0  0  0  0  0  0  0  0
  126.2400  135.9207  157.2284 C   0  0  0  0  0  0  0  0  0  0  0  0
  127.4749  135.8907  157.8486 C   0  0  0  0  0  0  0  0  0  0  0  0
  130.1891  133.4684  157.2785 N   0  0  0  0  0  0  0  0  0  0  0  0
  130.6641  134.0166  156.6345 H   0  0  0  0  0  0  0  0  0  0  0  0
  129.6984  131.6983  154.7594 C   0  0  0  0  0  0  0  0  0  0  0  0
  129.9564  130.9231  153.5021 C   0  0  0  0  0  0  0  0  0  0  0  0
  131.6328  129.6584  152.7628 H   0  0  0  0  0  0  0  0  0  0  0  0
  132.4754  129.0088  154.8329 H   0  0  0  0  0  0  0  0  0  0  0  0
  131.8255  130.3292  156.8116 H   0  0  0  0  0  0  0  0  0  0  0  0
  130.4078  129.3028  156.5129 H   0  0  0  0  0  0  0  0  0  0  0  0
  128.8168  130.7603  158.4167 H   0  0  0  0  0  0  0  0  0  0  0  0
  130.6655  135.6902  158.7088 H   0  0  0  0  0  0  0  0  0  0  0  0
  128.8512  135.0437  160.7761 H   0  0  0  0  0  0  0  0  0  0  0  0
  128.3698  136.9327  162.2267 H   0  0  0  0  0  0  0  0  0  0  0  0
  129.0145  139.2113  162.9015 H   0  0  0  0  0  0  0  0  0  0  0  0
  130.2870  140.6406  161.3519 H   0  0  0  0  0  0  0  0  0  0  0  0
  130.9232  139.7877  159.1313 H   0  0  0  0  0  0  0  0  0  0  0  0
  130.2866  137.5057  158.4602 H   0  0  0  0  0  0  0  0  0  0  0  0
  126.4686  135.4191  161.0334 H   0  0  0  0  0  0  0  0  0  0  0  0
  124.2683  135.4818  159.9298 H   0  0  0  0  0  0  0  0  0  0  0  0
  124.1221  135.7967  157.4920 H   0  0  0  0  0  0  0  0  0  0  0  0
  126.1758  136.0584  156.1591 H   0  0  0  0  0  0  0  0  0  0  0  0
  128.3757  136.0052  157.2638 H   0  0  0  0  0  0  0  0  0  0  0  0
  129.0981  132.5942  154.7021 H   0  0  0  0  0  0  0  0  0  0  0  0
  129.0790  130.3203  153.2679 H   0  0  0  0  0  0  0  0  0  0  0  0
  130.1399  131.6198  152.6842 H   0  0  0  0  0  0  0  0  0  0  0  0
  1 27  1  0
  1  2  2  0
  1 28  1  0
  2  3  1  0
  2 29  1  0
  3  4  1  0
  3 30  1  0
  3 31  1  0
  4  5  1  0
  4 26  2  0
  5 24  1  0
  5  6  2  0
  6  7  1  0
  6 32  1  0
  7  8  1  0
  7  9  1  0
  9 10  1  0
  9 24  2  0
 10 11  1  0
 10 33  1  0
 11 12  1  0
 11 18  1  0
 11 34  1  0
 12 17  1  0
 12 13  2  0
 13 14  1  0
 13 35  1  0
 14 15  2  0
 14 36  1  0
 15 16  1  0
 15 37  1  0
 16 17  2  0
 16 38  1  0
 17 39  1  0
 18 23  1  0
 18 19  2  0
 19 20  1  0
 19 40  1  0
 20 21  2  0
 20 41  1  0
 21 22  1  0
 21 42  1  0
 22 23  2  0
 22 43  1  0
 23 44  1  0
 24 25  1  0
 26 27  1  0
 26 45  1  0
 27 46  1  0
 27 47  1  0
M  CHG  1  24   1
M  END
>  <DOCK_score>  (1) 
-57.962414

>  <SMILES>  (1) 
C1=CCC(c2c[nH]c(NC(c3ccccc3)c3ccccc3)[nH+]2)=CC1

$$$$
