CCC[NH2+]Cc1c[nH]nc1-c1ccc(N[C@H]2Cc3ccc(Cl)cc3C2)o1
     RDKit          3D

 50 53  0  0  1  0  0  0  0  0999 V2000
  134.4930  138.4076  159.6025 C   0  0  0  0  0  0  0  0  0  0  0  0
  133.1178  139.0121  159.8925 C   0  0  0  0  0  0  0  0  0  0  0  0
  132.2860  138.0196  160.7075 C   0  0  0  0  0  0  0  0  0  0  0  0
  132.1228  136.7749  159.9445 N   0  0  0  0  0  0  0  0  0  0  0  0
  133.0298  136.3763  159.7533 H   0  0  0  0  0  0  0  0  0  0  0  0
  131.6523  136.9732  159.0743 H   0  0  0  0  0  0  0  0  0  0  0  0
  131.3243  135.8221  160.7269 C   0  0  0  0  0  0  0  0  0  0  0  0
  131.1568  134.5452  159.9443 C   0  0  0  0  0  0  0  0  0  0  0  0
  132.1288  133.8900  159.2741 C   0  0  0  0  0  0  0  0  0  0  0  0
  131.5786  132.7976  158.7013 N   0  0  0  0  0  0  0  0  0  0  0  0
  132.0452  132.1454  158.1555 H   0  0  0  0  0  0  0  0  0  0  0  0
  130.2176  132.7695  159.0311 N   0  0  0  0  0  0  0  0  0  0  0  0
  129.9573  133.8201  159.7840 C   0  0  0  0  0  0  0  0  0  0  0  0
  128.6416  134.1779  160.3535 C   0  0  0  0  0  0  0  0  0  0  0  0
  127.4887  133.4756  160.1966 C   0  0  0  0  0  0  0  0  0  0  0  0
  126.4890  134.1684  160.9077 C   0  0  0  0  0  0  0  0  0  0  0  0
  127.0778  135.2606  161.4557 C   0  0  0  0  0  0  0  0  0  0  0  0
  126.4435  136.2182  162.2386 N   0  0  0  0  0  0  0  0  0  0  0  0
  127.1948  136.9329  163.2734 C   0  0  1  0  0  0  0  0  0  0  0  0
  127.5973  136.2385  164.0109 H   0  0  0  0  0  0  0  0  0  0  0  0
  128.3226  137.7834  162.6478 C   0  0  0  0  0  0  0  0  0  0  0  0
  128.4007  139.0304  163.5025 C   0  0  0  0  0  0  0  0  0  0  0  0
  129.4029  139.9796  163.6151 C   0  0  0  0  0  0  0  0  0  0  0  0
  129.2527  141.0509  164.4733 C   0  0  0  0  0  0  0  0  0  0  0  0
  128.0969  141.1775  165.2234 C   0  0  0  0  0  0  0  0  0  0  0  0
  127.9049  142.5228  166.3037 Cl  0  0  0  0  0  0  0  0  0  0  0  0
  127.0957  140.2313  165.1116 C   0  0  0  0  0  0  0  0  0  0  0  0
  127.2458  139.1564  164.2516 C   0  0  0  0  0  0  0  0  0  0  0  0
  126.3128  138.0028  163.9515 C   0  0  0  0  0  0  0  0  0  0  0  0
  128.3789  135.2579  161.1190 O   0  0  0  0  0  0  0  0  0  0  0  0
  135.0856  139.1146  159.0219 H   0  0  0  0  0  0  0  0  0  0  0  0
  135.0014  138.1934  160.5426 H   0  0  0  0  0  0  0  0  0  0  0  0
  134.3720  137.4841  159.0364 H   0  0  0  0  0  0  0  0  0  0  0  0
  132.6094  139.2262  158.9523 H   0  0  0  0  0  0  0  0  0  0  0  0
  133.2388  139.9355  160.4587 H   0  0  0  0  0  0  0  0  0  0  0  0
  131.3063  138.4503  160.9141 H   0  0  0  0  0  0  0  0  0  0  0  0
  132.7944  137.8055  161.6476 H   0  0  0  0  0  0  0  0  0  0  0  0
  130.3445  136.2527  160.9336 H   0  0  0  0  0  0  0  0  0  0  0  0
  131.8325  135.6079  161.6671 H   0  0  0  0  0  0  0  0  0  0  0  0
  133.1641  134.1894  159.2047 H   0  0  0  0  0  0  0  0  0  0  0  0
  127.3637  132.5600  159.6378 H   0  0  0  0  0  0  0  0  0  0  0  0
  125.4508  133.8846  160.9981 H   0  0  0  0  0  0  0  0  0  0  0  0
  125.5035  136.4131  162.0998 H   0  0  0  0  0  0  0  0  0  0  0  0
  128.0714  138.0446  161.6198 H   0  0  0  0  0  0  0  0  0  0  0  0
  129.2688  137.2432  162.6798 H   0  0  0  0  0  0  0  0  0  0  0  0
  130.3054  139.8813  163.0300 H   0  0  0  0  0  0  0  0  0  0  0  0
  130.0363  141.7893  164.5586 H   0  0  0  0  0  0  0  0  0  0  0  0
  126.1936  140.3304  165.6972 H   0  0  0  0  0  0  0  0  0  0  0  0
  125.8861  137.6114  164.8750 H   0  0  0  0  0  0  0  0  0  0  0  0
  125.5202  138.3235  163.2755 H   0  0  0  0  0  0  0  0  0  0  0  0
  1  2  1  0
  1 31  1  0
  1 32  1  0
  1 33  1  0
  2  3  1  0
  2 34  1  0
  2 35  1  0
  3  4  1  0
  3 36  1  0
  3 37  1  0
  4  5  1  0
  4  6  1  0
  4  7  1  0
  7  8  1  0
  7 38  1  0
  7 39  1  0
  8 13  1  0
  8  9  2  0
  9 10  1  0
  9 40  1  0
 10 11  1  0
 10 12  1  0
 12 13  2  0
 13 14  1  0
 14 30  1  0
 14 15  2  0
 15 16  1  0
 15 41  1  0
 16 17  2  0
 16 42  1  0
 17 18  1  0
 17 30  1  0
 18 19  1  0
 18 43  1  0
 19 20  1  1
 19 29  1  0
 19 21  1  0
 21 22  1  0
 21 44  1  0
 21 45  1  0
 22 28  2  0
 22 23  1  0
 23 24  2  0
 23 46  1  0
 24 25  1  0
 24 47  1  0
 25 26  1  0
 25 27  2  0
 27 28  1  0
 27 48  1  0
 28 29  1  0
 29 49  1  0
 29 50  1  0
M  CHG  1   4   1
M  END
>  <DOCK_score>  (1) 
-45.910439

>  <SMILES>  (1) 
CCC[NH2+]Cc1c[nH]nc1-c1ccc(N[C@H]2Cc3ccc(Cl)cc3C2)o1

$$$$
