CCc1c(N2CC[NH+](CCc3ccccc3)CC2)ccc2cc[nH]c12
     RDKit          3D

 53 56  0  0  1  0  0  0  0  0999 V2000
  125.4704  135.7026  159.5069 C   0  0  0  0  0  0  0  0  0  0  0  0
  126.4077  135.1745  160.5948 C   0  0  0  0  0  0  0  0  0  0  0  0
  127.5575  136.1317  160.7751 C   0  0  0  0  0  0  0  0  0  0  0  0
  128.7157  135.9743  160.0337 C   0  0  0  0  0  0  0  0  0  0  0  0
  128.8152  134.9235  159.1170 N   0  0  0  0  0  0  0  0  0  0  0  0
  128.9489  135.4326  157.7447 C   0  0  0  0  0  0  0  0  0  0  0  0
  128.9946  134.2546  156.7690 C   0  0  0  0  0  0  0  0  0  0  0  0
  130.1327  133.3875  157.1010 N   0  0  0  0  0  0  0  0  0  0  0  0
  130.9885  133.9187  157.0425 H   0  0  0  0  0  0  0  0  0  0  0  0
  130.1868  132.2666  156.1531 C   0  0  0  0  0  0  0  0  0  0  0  0
  130.8369  132.7326  154.8488 C   0  0  0  0  0  0  0  0  0  0  0  0
  130.8923  131.5827  153.8764 C   0  0  0  0  0  0  0  0  0  0  0  0
  130.8280  131.8235  152.5166 C   0  0  0  0  0  0  0  0  0  0  0  0
  130.8838  130.7691  151.6246 C   0  0  0  0  0  0  0  0  0  0  0  0
  130.9933  129.4729  152.0924 C   0  0  0  0  0  0  0  0  0  0  0  0
  131.0523  129.2317  153.4522 C   0  0  0  0  0  0  0  0  0  0  0  0
  131.0019  130.2865  154.3442 C   0  0  0  0  0  0  0  0  0  0  0  0
  129.9721  132.8673  158.4652 C   0  0  0  0  0  0  0  0  0  0  0  0
  129.9349  134.0337  159.4551 C   0  0  0  0  0  0  0  0  0  0  0  0
  129.7817  136.8590  160.1901 C   0  0  0  0  0  0  0  0  0  0  0  0
  129.7000  137.8908  161.0811 C   0  0  0  0  0  0  0  0  0  0  0  0
  128.5420  138.0622  161.8420 C   0  0  0  0  0  0  0  0  0  0  0  0
  128.1288  139.0326  162.8599 C   0  0  0  0  0  0  0  0  0  0  0  0
  126.8891  138.6935  163.2454 C   0  0  0  0  0  0  0  0  0  0  0  0
  126.4732  137.5844  162.5572 N   0  0  0  0  0  0  0  0  0  0  0  0
  125.6112  137.1525  162.6646 H   0  0  0  0  0  0  0  0  0  0  0  0
  127.4614  137.1736  161.6908 C   0  0  0  0  0  0  0  0  0  0  0  0
  125.9953  135.7189  158.5517 H   0  0  0  0  0  0  0  0  0  0  0  0
  124.5988  135.0526  159.4313 H   0  0  0  0  0  0  0  0  0  0  0  0
  125.1495  136.7124  159.7624 H   0  0  0  0  0  0  0  0  0  0  0  0
  126.7909  134.1973  160.3013 H   0  0  0  0  0  0  0  0  0  0  0  0
  125.8603  135.0833  161.5330 H   0  0  0  0  0  0  0  0  0  0  0  0
  129.8688  136.0113  157.6595 H   0  0  0  0  0  0  0  0  0  0  0  0
  128.0958  136.0682  157.5078 H   0  0  0  0  0  0  0  0  0  0  0  0
  129.1081  134.6295  155.7518 H   0  0  0  0  0  0  0  0  0  0  0  0
  128.0690  133.6842  156.8447 H   0  0  0  0  0  0  0  0  0  0  0  0
  130.7750  131.4556  156.5826 H   0  0  0  0  0  0  0  0  0  0  0  0
  129.1759  131.9139  155.9495 H   0  0  0  0  0  0  0  0  0  0  0  0
  130.2487  133.5436  154.4193 H   0  0  0  0  0  0  0  0  0  0  0  0
  131.8479  133.0853  155.0524 H   0  0  0  0  0  0  0  0  0  0  0  0
  130.7381  132.8359  152.1513 H   0  0  0  0  0  0  0  0  0  0  0  0
  130.8374  130.9576  150.5621 H   0  0  0  0  0  0  0  0  0  0  0  0
  131.0324  128.6488  151.3954 H   0  0  0  0  0  0  0  0  0  0  0  0
  131.1376  128.2191  153.8177 H   0  0  0  0  0  0  0  0  0  0  0  0
  131.0477  130.0979  155.4067 H   0  0  0  0  0  0  0  0  0  0  0  0
  129.0413  132.3040  158.5320 H   0  0  0  0  0  0  0  0  0  0  0  0
  130.8104  132.2134  158.7059 H   0  0  0  0  0  0  0  0  0  0  0  0
  130.8710  134.5893  159.3981 H   0  0  0  0  0  0  0  0  0  0  0  0
  129.8013  133.6490  160.4662 H   0  0  0  0  0  0  0  0  0  0  0  0
  130.6782  136.7278  159.6022 H   0  0  0  0  0  0  0  0  0  0  0  0
  130.5293  138.5728  161.1966 H   0  0  0  0  0  0  0  0  0  0  0  0
  128.7118  139.8631  163.2297 H   0  0  0  0  0  0  0  0  0  0  0  0
  126.3057  139.2173  163.9883 H   0  0  0  0  0  0  0  0  0  0  0  0
  1  2  1  0
  1 28  1  0
  1 29  1  0
  1 30  1  0
  2  3  1  0
  2 31  1  0
  2 32  1  0
  3 27  2  0
  3  4  1  0
  4  5  1  0
  4 20  2  0
  5 19  1  0
  5  6  1  0
  6  7  1  0
  6 33  1  0
  6 34  1  0
  7  8  1  0
  7 35  1  0
  7 36  1  0
  8  9  1  0
  8 10  1  0
  8 18  1  0
 10 11  1  0
 10 37  1  0
 10 38  1  0
 11 12  1  0
 11 39  1  0
 11 40  1  0
 12 17  1  0
 12 13  2  0
 13 14  1  0
 13 41  1  0
 14 15  2  0
 14 42  1  0
 15 16  1  0
 15 43  1  0
 16 17  2  0
 16 44  1  0
 17 45  1  0
 18 19  1  0
 18 46  1  0
 18 47  1  0
 19 48  1  0
 19 49  1  0
 20 21  1  0
 20 50  1  0
 21 22  2  0
 21 51  1  0
 22 27  1  0
 22 23  1  0
 23 24  2  0
 23 52  1  0
 24 25  1  0
 24 53  1  0
 25 26  1  0
 25 27  1  0
M  CHG  1   8   1
M  END
>  <DOCK_score>  (1) 
-40.915253

>  <SMILES>  (1) 
CCc1c(N2CC[NH+](CCc3ccccc3)CC2)ccc2cc[nH]c12

$$$$
