Clc1cccc(N2CC[NH+](C(c3ccccc3)c3ccccc3)CC2)c1Cc1nc2ccccc2[nH]1
     RDKit          3D

 66 71  0  0  1  0  0  0  0  0999 V2000
  136.1411  140.9810  162.7504 Cl  0  0  0  0  0  0  0  0  0  0  0  0
  135.4058  140.1602  161.4090 C   0  0  0  0  0  0  0  0  0  0  0  0
  135.8006  140.4572  160.1158 C   0  0  0  0  0  0  0  0  0  0  0  0
  135.2126  139.8105  159.0448 C   0  0  0  0  0  0  0  0  0  0  0  0
  134.2334  138.8607  159.2621 C   0  0  0  0  0  0  0  0  0  0  0  0
  133.8389  138.5555  160.5585 C   0  0  0  0  0  0  0  0  0  0  0  0
  132.8486  137.5958  160.7810 N   0  0  0  0  0  0  0  0  0  0  0  0
  133.2870  136.2704  160.3215 C   0  0  0  0  0  0  0  0  0  0  0  0
  132.2008  135.2397  160.6367 C   0  0  0  0  0  0  0  0  0  0  0  0
  130.9524  135.6221  159.9637 N   0  0  0  0  0  0  0  0  0  0  0  0
  131.1078  135.6675  158.9679 H   0  0  0  0  0  0  0  0  0  0  0  0
  129.9151  134.6227  160.2519 C   0  0  0  0  0  0  0  0  0  0  0  0
  128.6342  135.0149  159.5616 C   0  0  0  0  0  0  0  0  0  0  0  0
  127.4164  134.6576  160.1094 C   0  0  0  0  0  0  0  0  0  0  0  0
  126.2413  135.0215  159.4787 C   0  0  0  0  0  0  0  0  0  0  0  0
  126.2840  135.7336  158.2953 C   0  0  0  0  0  0  0  0  0  0  0  0
  127.5022  136.0863  157.7440 C   0  0  0  0  0  0  0  0  0  0  0  0
  128.6772  135.7270  158.3774 C   0  0  0  0  0  0  0  0  0  0  0  0
  130.3635  133.2742  159.7505 C   0  0  0  0  0  0  0  0  0  0  0  0
  129.9433  132.1237  160.3913 C   0  0  0  0  0  0  0  0  0  0  0  0
  130.3506  130.8866  159.9283 C   0  0  0  0  0  0  0  0  0  0  0  0
  131.1867  130.8004  158.8308 C   0  0  0  0  0  0  0  0  0  0  0  0
  131.6112  131.9511  158.1932 C   0  0  0  0  0  0  0  0  0  0  0  0
  131.1996  133.1880  158.6530 C   0  0  0  0  0  0  0  0  0  0  0  0
  130.5143  136.9367  160.4510 C   0  0  0  0  0  0  0  0  0  0  0  0
  131.5865  137.9816  160.1342 C   0  0  0  0  0  0  0  0  0  0  0  0
  134.4308  139.2069  161.6331 C   0  0  0  0  0  0  0  0  0  0  0  0
  134.0058  138.8790  163.0413 C   0  0  0  0  0  0  0  0  0  0  0  0
  135.0699  138.0437  163.7055 C   0  0  0  0  0  0  0  0  0  0  0  0
  135.6726  137.0298  163.1562 N   0  0  0  0  0  0  0  0  0  0  0  0
  136.5718  136.5059  164.0284 C   0  0  0  0  0  0  0  0  0  0  0  0
  137.4681  135.4360  163.9620 C   0  0  0  0  0  0  0  0  0  0  0  0
  138.2638  135.1471  165.0340 C   0  0  0  0  0  0  0  0  0  0  0  0
  138.1927  135.9064  166.1934 C   0  0  0  0  0  0  0  0  0  0  0  0
  137.3160  136.9665  166.2816 C   0  0  0  0  0  0  0  0  0  0  0  0
  136.4994  137.2751  165.2021 C   0  0  0  0  0  0  0  0  0  0  0  0
  135.5404  138.2400  164.9667 N   0  0  0  0  0  0  0  0  0  0  0  0
  135.2554  138.9302  165.5858 H   0  0  0  0  0  0  0  0  0  0  0  0
  136.5659  141.1993  159.9430 H   0  0  0  0  0  0  0  0  0  0  0  0
  135.5194  140.0477  158.0370 H   0  0  0  0  0  0  0  0  0  0  0  0
  133.7751  138.3555  158.4248 H   0  0  0  0  0  0  0  0  0  0  0  0
  133.4612  136.2977  159.2459 H   0  0  0  0  0  0  0  0  0  0  0  0
  134.2093  135.9948  160.8329 H   0  0  0  0  0  0  0  0  0  0  0  0
  132.0365  135.2028  161.7136 H   0  0  0  0  0  0  0  0  0  0  0  0
  132.5178  134.2583  160.2839 H   0  0  0  0  0  0  0  0  0  0  0  0
  129.7474  134.5730  161.3279 H   0  0  0  0  0  0  0  0  0  0  0  0
  127.3829  134.0974  161.0322 H   0  0  0  0  0  0  0  0  0  0  0  0
  125.2898  134.7455  159.9086 H   0  0  0  0  0  0  0  0  0  0  0  0
  125.3663  136.0140  157.7995 H   0  0  0  0  0  0  0  0  0  0  0  0
  127.5358  136.6422  156.8188 H   0  0  0  0  0  0  0  0  0  0  0  0
  129.6287  136.0022  157.9472 H   0  0  0  0  0  0  0  0  0  0  0  0
  129.2936  132.1914  161.2514 H   0  0  0  0  0  0  0  0  0  0  0  0
  130.0193  129.9876  160.4267 H   0  0  0  0  0  0  0  0  0  0  0  0
  131.5087  129.8340  158.4718 H   0  0  0  0  0  0  0  0  0  0  0  0
  132.2647  131.8837  157.3360 H   0  0  0  0  0  0  0  0  0  0  0  0
  131.5315  134.0870  158.1551 H   0  0  0  0  0  0  0  0  0  0  0  0
  130.3586  136.8912  161.5289 H   0  0  0  0  0  0  0  0  0  0  0  0
  129.5812  137.2134  159.9605 H   0  0  0  0  0  0  0  0  0  0  0  0
  131.2683  138.9544  160.5090 H   0  0  0  0  0  0  0  0  0  0  0  0
  131.7327  138.0371  159.0556 H   0  0  0  0  0  0  0  0  0  0  0  0
  133.0691  138.3222  163.0178 H   0  0  0  0  0  0  0  0  0  0  0  0
  133.8656  139.8025  163.6030 H   0  0  0  0  0  0  0  0  0  0  0  0
  137.5318  134.8387  163.0644 H   0  0  0  0  0  0  0  0  0  0  0  0
  138.9521  134.3165  164.9804 H   0  0  0  0  0  0  0  0  0  0  0  0
  138.8286  135.6651  167.0323 H   0  0  0  0  0  0  0  0  0  0  0  0
  137.2649  137.5545  167.1860 H   0  0  0  0  0  0  0  0  0  0  0  0
  1  2  1  0
  2 27  2  0
  2  3  1  0
  3  4  2  0
  3 39  1  0
  4  5  1  0
  4 40  1  0
  5  6  2  0
  5 41  1  0
  6  7  1  0
  6 27  1  0
  7 26  1  0
  7  8  1  0
  8  9  1  0
  8 42  1  0
  8 43  1  0
  9 10  1  0
  9 44  1  0
  9 45  1  0
 10 11  1  0
 10 12  1  0
 10 25  1  0
 12 13  1  0
 12 19  1  0
 12 46  1  0
 13 18  1  0
 13 14  2  0
 14 15  1  0
 14 47  1  0
 15 16  2  0
 15 48  1  0
 16 17  1  0
 16 49  1  0
 17 18  2  0
 17 50  1  0
 18 51  1  0
 19 24  1  0
 19 20  2  0
 20 21  1  0
 20 52  1  0
 21 22  2  0
 21 53  1  0
 22 23  1  0
 22 54  1  0
 23 24  2  0
 23 55  1  0
 24 56  1  0
 25 26  1  0
 25 57  1  0
 25 58  1  0
 26 59  1  0
 26 60  1  0
 27 28  1  0
 28 29  1  0
 28 61  1  0
 28 62  1  0
 29 37  1  0
 29 30  2  0
 30 31  1  0
 31 36  2  0
 31 32  1  0
 32 33  2  0
 32 63  1  0
 33 34  1  0
 33 64  1  0
 34 35  2  0
 34 65  1  0
 35 36  1  0
 35 66  1  0
 36 37  1  0
 37 38  1  0
M  CHG  1  10   1
M  END
>  <DOCK_score>  (1) 
-60.54142

>  <SMILES>  (1) 
Clc1cccc(N2CC[NH+](C(c3ccccc3)c3ccccc3)CC2)c1Cc1nc2ccccc2[nH]1

$$$$
