Cc1ccccc1[C@H]1C[C@H](Nc2ccc(-c3n[nH]cc3C[NH2+]C3CCC(C4CC4)CC3)o2)C1
     RDKit          3D

 70 75  0  0  1  0  0  0  0  0999 V2000
  127.8272  135.7722  166.9769 C   0  0  0  0  0  0  0  0  0  0  0  0
  127.6516  137.2660  167.0692 C   0  0  0  0  0  0  0  0  0  0  0  0
  127.9378  137.9241  168.2510 C   0  0  0  0  0  0  0  0  0  0  0  0
  127.7708  139.2934  168.3373 C   0  0  0  0  0  0  0  0  0  0  0  0
  127.3235  140.0057  167.2402 C   0  0  0  0  0  0  0  0  0  0  0  0
  127.0427  139.3487  166.0571 C   0  0  0  0  0  0  0  0  0  0  0  0
  127.2094  137.9789  165.9708 C   0  0  0  0  0  0  0  0  0  0  0  0
  126.9028  137.2625  164.6810 C   0  0  1  0  0  0  0  0  0  0  0  0
  126.1204  136.5115  164.7895 H   0  0  0  0  0  0  0  0  0  0  0  0
  126.6882  138.2076  163.4872 C   0  0  0  0  0  0  0  0  0  0  0  0
  127.4748  137.1917  162.6422 C   0  0  2  0  0  0  0  0  0  0  0  0
  128.1571  137.6530  161.9281 H   0  0  0  0  0  0  0  0  0  0  0  0
  126.6342  136.1552  162.0378 N   0  0  0  0  0  0  0  0  0  0  0  0
  127.2094  135.1678  161.2462 C   0  0  0  0  0  0  0  0  0  0  0  0
  126.5449  134.1571  160.6326 C   0  0  0  0  0  0  0  0  0  0  0  0
  127.5051  133.3973  159.9356 C   0  0  0  0  0  0  0  0  0  0  0  0
  128.7113  133.9792  160.1673 C   0  0  0  0  0  0  0  0  0  0  0  0
  130.0109  133.5182  159.6365 C   0  0  0  0  0  0  0  0  0  0  0  0
  130.2043  132.4723  158.8573 N   0  0  0  0  0  0  0  0  0  0  0  0
  131.5748  132.3826  158.5823 N   0  0  0  0  0  0  0  0  0  0  0  0
  132.0016  131.7073  158.0322 H   0  0  0  0  0  0  0  0  0  0  0  0
  132.1986  133.4025  159.2110 C   0  0  0  0  0  0  0  0  0  0  0  0
  131.2654  134.1185  159.8740 C   0  0  0  0  0  0  0  0  0  0  0  0
  131.5179  135.3447  160.7129 C   0  0  0  0  0  0  0  0  0  0  0  0
  132.4369  136.2436  160.0018 N   0  0  0  0  0  0  0  0  0  0  0  0
  132.0260  136.5170  159.1217 H   0  0  0  0  0  0  0  0  0  0  0  0
  133.3096  135.7667  159.8320 H   0  0  0  0  0  0  0  0  0  0  0  0
  132.6831  137.4389  160.8196 C   0  0  1  0  0  0  0  0  0  0  0  0
  133.7239  137.1164  161.8936 C   0  0  0  0  0  0  0  0  0  0  0  0
  133.9805  138.3612  162.7453 C   0  0  0  0  0  0  0  0  0  0  0  0
  134.5006  139.4906  161.8540 C   0  0  2  0  0  0  0  0  0  0  0  0
  134.7571  140.7356  162.7057 C   0  0  0  0  0  0  0  0  0  0  0  0
  136.2133  141.1338  162.9543 C   0  0  0  0  0  0  0  0  0  0  0  0
  135.3812  140.5298  164.0874 C   0  0  0  0  0  0  0  0  0  0  0  0
  133.4598  139.8132  160.7800 C   0  0  0  0  0  0  0  0  0  0  0  0
  133.2032  138.5683  159.9282 C   0  0  0  0  0  0  0  0  0  0  0  0
  128.5177  135.0539  160.9606 O   0  0  0  0  0  0  0  0  0  0  0  0
  128.1543  136.7495  163.9489 C   0  0  0  0  0  0  0  0  0  0  0  0
  128.8419  135.5452  166.6497 H   0  0  0  0  0  0  0  0  0  0  0  0
  127.6525  135.3247  167.9553 H   0  0  0  0  0  0  0  0  0  0  0  0
  127.1146  135.3662  166.2591 H   0  0  0  0  0  0  0  0  0  0  0  0
  128.2876  137.3677  169.1078 H   0  0  0  0  0  0  0  0  0  0  0  0
  127.9902  139.8068  169.2618 H   0  0  0  0  0  0  0  0  0  0  0  0
  127.1929  141.0757  167.3077 H   0  0  0  0  0  0  0  0  0  0  0  0
  126.6930  139.9053  165.2001 H   0  0  0  0  0  0  0  0  0  0  0  0
  127.1914  139.1685  163.5950 H   0  0  0  0  0  0  0  0  0  0  0  0
  125.6442  138.3076  163.1898 H   0  0  0  0  0  0  0  0  0  0  0  0
  125.6763  136.1578  162.1900 H   0  0  0  0  0  0  0  0  0  0  0  0
  125.4814  133.9726  160.6677 H   0  0  0  0  0  0  0  0  0  0  0  0
  127.3188  132.5198  159.3343 H   0  0  0  0  0  0  0  0  0  0  0  0
  133.2586  133.6080  159.1891 H   0  0  0  0  0  0  0  0  0  0  0  0
  131.9617  135.0494  161.6637 H   0  0  0  0  0  0  0  0  0  0  0  0
  130.5751  135.8599  160.8964 H   0  0  0  0  0  0  0  0  0  0  0  0
  131.7538  137.7508  161.2962 H   0  0  0  0  0  0  0  0  0  0  0  0
  134.6533  136.8044  161.4169 H   0  0  0  0  0  0  0  0  0  0  0  0
  133.3534  136.3116  162.5286 H   0  0  0  0  0  0  0  0  0  0  0  0
  134.7220  138.1314  163.5105 H   0  0  0  0  0  0  0  0  0  0  0  0
  133.0512  138.6730  163.2220 H   0  0  0  0  0  0  0  0  0  0  0  0
  135.4300  139.1787  161.3773 H   0  0  0  0  0  0  0  0  0  0  0  0
  134.0271  141.5378  162.5976 H   0  0  0  0  0  0  0  0  0  0  0  0
  136.9886  140.5087  162.5111 H   0  0  0  0  0  0  0  0  0  0  0  0
  136.4417  142.1980  163.0096 H   0  0  0  0  0  0  0  0  0  0  0  0
  135.0621  141.1970  164.8882 H   0  0  0  0  0  0  0  0  0  0  0  0
  135.6087  139.5076  164.3897 H   0  0  0  0  0  0  0  0  0  0  0  0
  132.5305  140.1252  161.2566 H   0  0  0  0  0  0  0  0  0  0  0  0
  133.8303  140.6179  160.1449 H   0  0  0  0  0  0  0  0  0  0  0  0
  134.1325  138.2564  159.4516 H   0  0  0  0  0  0  0  0  0  0  0  0
  132.4617  138.7981  159.1630 H   0  0  0  0  0  0  0  0  0  0  0  0
  128.2936  135.6711  164.0254 H   0  0  0  0  0  0  0  0  0  0  0  0
  129.0582  137.3116  164.1830 H   0  0  0  0  0  0  0  0  0  0  0  0
  1  2  1  0
  1 39  1  0
  1 40  1  0
  1 41  1  0
  2  7  2  0
  2  3  1  0
  3  4  2  0
  3 42  1  0
  4  5  1  0
  4 43  1  0
  5  6  2  0
  5 44  1  0
  6  7  1  0
  6 45  1  0
  7  8  1  0
  8  9  1  1
  8 38  1  0
  8 10  1  0
 10 11  1  0
 10 46  1  0
 10 47  1  0
 11 12  1  6
 11 13  1  0
 11 38  1  0
 13 14  1  0
 13 48  1  0
 14 37  1  0
 14 15  2  0
 15 16  1  0
 15 49  1  0
 16 17  2  0
 16 50  1  0
 17 18  1  0
 17 37  1  0
 18 23  1  0
 18 19  2  0
 19 20  1  0
 20 21  1  0
 20 22  1  0
 22 23  2  0
 22 51  1  0
 23 24  1  0
 24 25  1  0
 24 52  1  0
 24 53  1  0
 25 26  1  0
 25 27  1  0
 25 28  1  0
 28 36  1  0
 28 29  1  0
 28 54  1  1
 29 30  1  0
 29 55  1  0
 29 56  1  0
 30 31  1  0
 30 57  1  0
 30 58  1  0
 31 32  1  0
 31 35  1  0
 31 59  1  6
 32 34  1  0
 32 33  1  0
 32 60  1  0
 33 34  1  0
 33 61  1  0
 33 62  1  0
 34 63  1  0
 34 64  1  0
 35 36  1  0
 35 65  1  0
 35 66  1  0
 36 67  1  0
 36 68  1  0
 38 69  1  0
 38 70  1  0
M  CHG  1  25   1
M  END
>  <DOCK_score>  (1) 
-48.702515

>  <SMILES>  (1) 
Cc1ccccc1[C@H]1C[C@H](Nc2ccc(-c3n[nH]cc3C[NH2+]C3CCC(C4CC4)CC3)o2)C1

$$$$
