Nc1cccc([C@H](Nc2[nH]cc(-c3ccc(Br)cc3)[nH+]2)c2ccccc2)c1
     RDKit          3D

 47 50  0  0  1  0  0  0  0  0999 V2000
  133.3489  139.3703  160.8846 N   0  0  0  0  0  0  0  0  0  0  0  0
  132.0248  138.9306  160.9510 C   0  0  0  0  0  0  0  0  0  0  0  0
  131.0171  139.8103  161.3264 C   0  0  0  0  0  0  0  0  0  0  0  0
  129.7091  139.3725  161.3905 C   0  0  0  0  0  0  0  0  0  0  0  0
  129.4015  138.0599  161.0816 C   0  0  0  0  0  0  0  0  0  0  0  0
  130.4013  137.1832  160.7026 C   0  0  0  0  0  0  0  0  0  0  0  0
  130.0606  135.7556  160.3610 C   0  0  2  0  0  0  0  0  0  0  0  0
  130.5934  135.0838  161.0341 H   0  0  0  0  0  0  0  0  0  0  0  0
  130.4566  135.4764  158.9784 N   0  0  0  0  0  0  0  0  0  0  0  0
  130.2418  134.2206  158.4368 C   0  0  0  0  0  0  0  0  0  0  0  0
  129.6689  133.1672  159.0806 N   0  0  0  0  0  0  0  0  0  0  0  0
  129.3409  133.1611  159.9934 H   0  0  0  0  0  0  0  0  0  0  0  0
  129.6415  132.1139  158.1990 C   0  0  0  0  0  0  0  0  0  0  0  0
  130.1978  132.5535  157.0431 C   0  0  0  0  0  0  0  0  0  0  0  0
  130.3824  131.7575  155.8051 C   0  0  0  0  0  0  0  0  0  0  0  0
  129.7758  132.1616  154.6170 C   0  0  0  0  0  0  0  0  0  0  0  0
  129.9555  131.4207  153.4668 C   0  0  0  0  0  0  0  0  0  0  0  0
  130.7268  130.2720  153.4940 C   0  0  0  0  0  0  0  0  0  0  0  0
  130.9613  129.2566  151.9161 Br  0  0  0  0  0  0  0  0  0  0  0  0
  131.3268  129.8631  154.6727 C   0  0  0  0  0  0  0  0  0  0  0  0
  131.1582  130.5999  155.8272 C   0  0  0  0  0  0  0  0  0  0  0  0
  130.5513  133.8517  157.2178 N   0  0  0  0  0  0  0  0  0  0  0  0
  130.9688  134.4159  156.5484 H   0  0  0  0  0  0  0  0  0  0  0  0
  128.5762  135.5436  160.5108 C   0  0  0  0  0  0  0  0  0  0  0  0
  128.0561  135.1289  161.7226 C   0  0  0  0  0  0  0  0  0  0  0  0
  126.6940  134.9386  161.8613 C   0  0  0  0  0  0  0  0  0  0  0  0
  125.8529  135.1539  160.7856 C   0  0  0  0  0  0  0  0  0  0  0  0
  126.3735  135.5640  159.5725 C   0  0  0  0  0  0  0  0  0  0  0  0
  127.7352  135.7583  159.4350 C   0  0  0  0  0  0  0  0  0  0  0  0
  131.7125  137.6130  160.6415 C   0  0  0  0  0  0  0  0  0  0  0  0
  134.0516  138.7551  160.6221 H   0  0  0  0  0  0  0  0  0  0  0  0
  133.5658  140.2905  161.1010 H   0  0  0  0  0  0  0  0  0  0  0  0
  131.2565  140.8355  161.5675 H   0  0  0  0  0  0  0  0  0  0  0  0
  128.9254  140.0559  161.6820 H   0  0  0  0  0  0  0  0  0  0  0  0
  128.3777  137.7202  161.1322 H   0  0  0  0  0  0  0  0  0  0  0  0
  130.8696  136.1715  158.4424 H   0  0  0  0  0  0  0  0  0  0  0  0
  129.2521  131.1248  158.3902 H   0  0  0  0  0  0  0  0  0  0  0  0
  129.1701  133.0555  154.5957 H   0  0  0  0  0  0  0  0  0  0  0  0
  129.4893  131.7352  152.5448 H   0  0  0  0  0  0  0  0  0  0  0  0
  131.9278  128.9659  154.6886 H   0  0  0  0  0  0  0  0  0  0  0  0
  131.6270  130.2802  156.7461 H   0  0  0  0  0  0  0  0  0  0  0  0
  128.7136  134.9567  162.5619 H   0  0  0  0  0  0  0  0  0  0  0  0
  126.2872  134.6185  162.8092 H   0  0  0  0  0  0  0  0  0  0  0  0
  124.7891  135.0019  160.8929 H   0  0  0  0  0  0  0  0  0  0  0  0
  125.7164  135.7322  158.7320 H   0  0  0  0  0  0  0  0  0  0  0  0
  128.1420  136.0785  158.4872 H   0  0  0  0  0  0  0  0  0  0  0  0
  132.4934  136.9268  160.3489 H   0  0  0  0  0  0  0  0  0  0  0  0
  1  2  1  0
  1 31  1  0
  1 32  1  0
  2 30  2  0
  2  3  1  0
  3  4  2  0
  3 33  1  0
  4  5  1  0
  4 34  1  0
  5  6  2  0
  5 35  1  0
  6  7  1  0
  6 30  1  0
  7  8  1  1
  7  9  1  0
  7 24  1  0
  9 36  1  0
 10  9  1  0
 10 22  2  0
 10 11  1  0
 11 12  1  0
 11 13  1  0
 13 14  2  0
 13 37  1  0
 14 15  1  0
 14 22  1  0
 15 21  1  0
 15 16  2  0
 16 17  1  0
 16 38  1  0
 17 18  2  0
 17 39  1  0
 18 19  1  0
 18 20  1  0
 20 21  2  0
 20 40  1  0
 21 41  1  0
 22 23  1  0
 24 29  1  0
 24 25  2  0
 25 26  1  0
 25 42  1  0
 26 27  2  0
 26 43  1  0
 27 28  1  0
 27 44  1  0
 28 29  2  0
 28 45  1  0
 29 46  1  0
 30 47  1  0
M  CHG  1  22   1
M  END
>  <DOCK_score>  (1) 
-56.460579

>  <SMILES>  (1) 
Nc1cccc([C@H](Nc2[nH]cc(-c3ccc(Br)cc3)[nH+]2)c2ccccc2)c1

$$$$
