Fc1ccc(C(Nc2[nH]cc(-c3ccc(Br)cc3)[nH+]2)c2ccc(F)cc2)cc1
     RDKit          3D

 45 48  0  0  1  0  0  0  0  0999 V2000
  124.2111  135.0155  160.2376 F   0  0  0  0  0  0  0  0  0  0  0  0
  125.5572  135.1296  160.2396 C   0  0  0  0  0  0  0  0  0  0  0  0
  126.2778  134.8114  161.3783 C   0  0  0  0  0  0  0  0  0  0  0  0
  127.6553  134.9235  161.3775 C   0  0  0  0  0  0  0  0  0  0  0  0
  128.3132  135.3583  160.2420 C   0  0  0  0  0  0  0  0  0  0  0  0
  129.8152  135.4803  160.2424 C   0  0  0  0  0  0  0  0  0  0  0  0
  130.3246  135.2462  158.8889 N   0  0  0  0  0  0  0  0  0  0  0  0
  130.0875  134.0361  158.2597 C   0  0  0  0  0  0  0  0  0  0  0  0
  129.4033  132.9867  158.7915 N   0  0  0  0  0  0  0  0  0  0  0  0
  128.9974  132.9525  159.6718 H   0  0  0  0  0  0  0  0  0  0  0  0
  129.3911  131.9861  157.8503 C   0  0  0  0  0  0  0  0  0  0  0  0
  130.0747  132.4493  156.7746 C   0  0  0  0  0  0  0  0  0  0  0  0
  130.3244  131.7086  155.5139 C   0  0  0  0  0  0  0  0  0  0  0  0
  129.8529  132.2113  154.3024 C   0  0  0  0  0  0  0  0  0  0  0  0
  130.0925  131.5210  153.1319 C   0  0  0  0  0  0  0  0  0  0  0  0
  130.7905  130.3263  153.1605 C   0  0  0  0  0  0  0  0  0  0  0  0
  131.1089  129.3820  151.5532 Br  0  0  0  0  0  0  0  0  0  0  0  0
  131.2563  129.8199  154.3617 C   0  0  0  0  0  0  0  0  0  0  0  0
  131.0265  130.5049  155.5374 C   0  0  0  0  0  0  0  0  0  0  0  0
  130.4899  133.7100  157.0556 N   0  0  0  0  0  0  0  0  0  0  0  0
  131.0028  134.2790  156.4606 H   0  0  0  0  0  0  0  0  0  0  0  0
  130.2069  136.8636  160.6942 C   0  0  0  0  0  0  0  0  0  0  0  0
  130.4113  137.1192  162.0374 C   0  0  0  0  0  0  0  0  0  0  0  0
  130.7753  138.3863  162.4525 C   0  0  0  0  0  0  0  0  0  0  0  0
  130.9245  139.4022  161.5237 C   0  0  0  0  0  0  0  0  0  0  0  0
  131.2743  140.6426  161.9290 F   0  0  0  0  0  0  0  0  0  0  0  0
  130.7143  139.1462  160.1794 C   0  0  0  0  0  0  0  0  0  0  0  0
  130.3560  137.8771  159.7661 C   0  0  0  0  0  0  0  0  0  0  0  0
  127.5943  135.6820  159.1064 C   0  0  0  0  0  0  0  0  0  0  0  0
  126.2167  135.5705  159.1048 C   0  0  0  0  0  0  0  0  0  0  0  0
  125.7641  134.4712  162.2653 H   0  0  0  0  0  0  0  0  0  0  0  0
  128.2179  134.6717  162.2642 H   0  0  0  0  0  0  0  0  0  0  0  0
  130.2396  134.7421  160.9229 H   0  0  0  0  0  0  0  0  0  0  0  0
  130.8279  135.9393  158.4336 H   0  0  0  0  0  0  0  0  0  0  0  0
  128.9290  131.0150  157.9495 H   0  0  0  0  0  0  0  0  0  0  0  0
  129.3045  133.1414  154.2795 H   0  0  0  0  0  0  0  0  0  0  0  0
  129.7311  131.9117  152.1920 H   0  0  0  0  0  0  0  0  0  0  0  0
  131.8002  128.8870  154.3789 H   0  0  0  0  0  0  0  0  0  0  0  0
  131.3907  130.1091  156.4740 H   0  0  0  0  0  0  0  0  0  0  0  0
  130.2902  136.3278  162.7622 H   0  0  0  0  0  0  0  0  0  0  0  0
  130.9385  138.5850  163.5015 H   0  0  0  0  0  0  0  0  0  0  0  0
  130.8300  139.9380  159.4540 H   0  0  0  0  0  0  0  0  0  0  0  0
  130.1921  137.6772  158.7174 H   0  0  0  0  0  0  0  0  0  0  0  0
  128.1094  136.0215  158.2200 H   0  0  0  0  0  0  0  0  0  0  0  0
  125.6553  135.8230  158.2175 H   0  0  0  0  0  0  0  0  0  0  0  0
  1  2  1  0
  2 30  2  0
  2  3  1  0
  3  4  2  0
  3 31  1  0
  4  5  1  0
  4 32  1  0
  5  6  1  0
  5 29  2  0
  6  7  1  0
  6 22  1  0
  6 33  1  0
  7 34  1  0
  8  7  1  0
  8 20  2  0
  8  9  1  0
  9 10  1  0
  9 11  1  0
 11 12  2  0
 11 35  1  0
 12 13  1  0
 12 20  1  0
 13 19  1  0
 13 14  2  0
 14 15  1  0
 14 36  1  0
 15 16  2  0
 15 37  1  0
 16 17  1  0
 16 18  1  0
 18 19  2  0
 18 38  1  0
 19 39  1  0
 20 21  1  0
 22 28  1  0
 22 23  2  0
 23 24  1  0
 23 40  1  0
 24 25  2  0
 24 41  1  0
 25 26  1  0
 25 27  1  0
 27 28  2  0
 27 42  1  0
 28 43  1  0
 29 30  1  0
 29 44  1  0
 30 45  1  0
M  CHG  1  20   1
M  END
>  <DOCK_score>  (1) 
-58.213028

>  <SMILES>  (1) 
Fc1ccc(C(Nc2[nH]cc(-c3ccc(Br)cc3)[nH+]2)c2ccc(F)cc2)cc1

$$$$
