CC=CSc1cc(C)cc([C@@H](O)c2ccc(-c3n[nH]cc3C[NH2+]CC3CC4CC3C4)o2)c1O
     RDKit          3D

 65 69  0  0  1  0  0  0  0  0999 V2000
  130.5439  142.3423  163.6912 C   0  0  0  0  0  0  0  0  0  0  0  0
  129.9065  141.2800  162.8331 C   0  0  0  0  0  0  0  0  0  0  0  0
  129.0453  140.4303  163.3642 C   0  0  0  0  0  0  0  0  0  0  0  0
  128.3002  139.1883  162.3608 S   0  0  0  0  0  0  0  0  0  0  0  0
  128.8115  137.6917  163.1377 C   0  0  0  0  0  0  0  0  0  0  0  0
  130.0241  137.6359  163.8107 C   0  0  0  0  0  0  0  0  0  0  0  0
  130.4230  136.4606  164.4184 C   0  0  0  0  0  0  0  0  0  0  0  0
  131.7398  136.4016  165.1489 C   0  0  0  0  0  0  0  0  0  0  0  0
  129.6168  135.3388  164.3582 C   0  0  0  0  0  0  0  0  0  0  0  0
  128.4072  135.3867  163.6897 C   0  0  0  0  0  0  0  0  0  0  0  0
  127.5321  134.1614  163.6269 C   0  0  1  0  0  0  0  0  0  0  0  0
  127.6878  133.5576  164.5211 H   0  0  0  0  0  0  0  0  0  0  0  0
  126.1613  134.5583  163.5529 O   0  0  0  0  0  0  0  0  0  0  0  0
  127.8875  133.3522  162.4062 C   0  0  0  0  0  0  0  0  0  0  0  0
  127.7793  132.0145  162.2919 C   0  0  0  0  0  0  0  0  0  0  0  0
  128.2119  131.6749  160.9938 C   0  0  0  0  0  0  0  0  0  0  0  0
  128.5722  132.8354  160.3850 C   0  0  0  0  0  0  0  0  0  0  0  0
  129.0952  132.9670  159.0083 C   0  0  0  0  0  0  0  0  0  0  0  0
  129.2884  131.9819  158.1542 N   0  0  0  0  0  0  0  0  0  0  0  0
  129.7921  132.5283  156.9669 N   0  0  0  0  0  0  0  0  0  0  0  0
  130.0253  132.0326  156.1664 H   0  0  0  0  0  0  0  0  0  0  0  0
  129.8963  133.8652  157.1293 C   0  0  0  0  0  0  0  0  0  0  0  0
  129.4699  134.1696  158.3738 C   0  0  0  0  0  0  0  0  0  0  0  0
  129.4086  135.5486  158.9785 C   0  0  0  0  0  0  0  0  0  0  0  0
  130.6805  135.8452  159.6510 N   0  0  0  0  0  0  0  0  0  0  0  0
  130.8425  135.1656  160.3790 H   0  0  0  0  0  0  0  0  0  0  0  0
  131.4331  135.8055  158.9800 H   0  0  0  0  0  0  0  0  0  0  0  0
  130.6208  137.1895  160.2406 C   0  0  0  0  0  0  0  0  0  0  0  0
  131.9454  137.4985  160.9409 C   0  0  2  0  0  0  0  0  0  0  0  0
  132.0328  138.9974  161.3600 C   0  0  0  0  0  0  0  0  0  0  0  0
  133.2644  139.4277  160.4918 C   0  0  2  0  0  0  0  0  0  0  0  0
  132.9708  138.7568  159.1257 C   0  0  0  0  0  0  0  0  0  0  0  0
  133.1490  137.4491  159.9387 C   0  0  1  0  0  0  0  0  0  0  0  0
  134.3125  138.2759  160.5660 C   0  0  0  0  0  0  0  0  0  0  0  0
  128.3702  133.8448  161.2534 O   0  0  0  0  0  0  0  0  0  0  0  0
  127.9997  136.5605  163.0776 C   0  0  0  0  0  0  0  0  0  0  0  0
  126.8108  136.6087  162.4192 O   0  0  0  0  0  0  0  0  0  0  0  0
  131.2199  142.9433  163.0831 H   0  0  0  0  0  0  0  0  0  0  0  0
  129.7687  142.9820  164.1130 H   0  0  0  0  0  0  0  0  0  0  0  0
  131.1039  141.8698  164.4982 H   0  0  0  0  0  0  0  0  0  0  0  0
  130.1535  141.2133  161.7838 H   0  0  0  0  0  0  0  0  0  0  0  0
  128.7982  140.4969  164.4134 H   0  0  0  0  0  0  0  0  0  0  0  0
  130.6558  138.5105  163.8591 H   0  0  0  0  0  0  0  0  0  0  0  0
  132.5256  136.0973  164.4573 H   0  0  0  0  0  0  0  0  0  0  0  0
  131.9743  137.3854  165.5553 H   0  0  0  0  0  0  0  0  0  0  0  0
  131.6719  135.6792  165.9622 H   0  0  0  0  0  0  0  0  0  0  0  0
  129.9307  134.4237  164.8383 H   0  0  0  0  0  0  0  0  0  0  0  0
  125.9570  135.1280  162.7989 H   0  0  0  0  0  0  0  0  0  0  0  0
  127.4261  131.3315  163.0503 H   0  0  0  0  0  0  0  0  0  0  0  0
  128.2537  130.6836  160.5672 H   0  0  0  0  0  0  0  0  0  0  0  0
  130.2545  134.5680  156.3915 H   0  0  0  0  0  0  0  0  0  0  0  0
  129.2337  136.2827  158.1919 H   0  0  0  0  0  0  0  0  0  0  0  0
  128.5957  135.5918  159.7032 H   0  0  0  0  0  0  0  0  0  0  0  0
  130.4456  137.9237  159.4542 H   0  0  0  0  0  0  0  0  0  0  0  0
  129.8077  137.2326  160.9654 H   0  0  0  0  0  0  0  0  0  0  0  0
  132.1070  136.8358  161.7911 H   0  0  0  0  0  0  0  0  0  0  0  0
  131.1338  139.5441  161.0755 H   0  0  0  0  0  0  0  0  0  0  0  0
  132.2396  139.1024  162.4250 H   0  0  0  0  0  0  0  0  0  0  0  0
  133.5971  140.4645  160.5389 H   0  0  0  0  0  0  0  0  0  0  0  0
  133.7397  138.9229  158.3714 H   0  0  0  0  0  0  0  0  0  0  0  0
  131.9592  138.9174  158.7530 H   0  0  0  0  0  0  0  0  0  0  0  0
  133.3551  136.5063  159.4320 H   0  0  0  0  0  0  0  0  0  0  0  0
  134.5809  137.9769  161.5792 H   0  0  0  0  0  0  0  0  0  0  0  0
  135.1736  138.4088  159.9110 H   0  0  0  0  0  0  0  0  0  0  0  0
  126.6141  137.4693  162.0251 H   0  0  0  0  0  0  0  0  0  0  0  0
  1  2  1  0
  1 38  1  0
  1 39  1  0
  1 40  1  0
  2  3  2  0
  2 41  1  0
  3  4  1  0
  3 42  1  0
  4  5  1  0
  5 36  2  0
  5  6  1  0
  6  7  2  0
  6 43  1  0
  7  8  1  0
  7  9  1  0
  8 44  1  0
  8 45  1  0
  8 46  1  0
  9 10  2  0
  9 47  1  0
 10 11  1  0
 10 36  1  0
 11 12  1  1
 11 13  1  0
 11 14  1  0
 13 48  1  0
 14 35  1  0
 14 15  2  0
 15 16  1  0
 15 49  1  0
 16 17  2  0
 16 50  1  0
 17 18  1  0
 17 35  1  0
 18 23  1  0
 18 19  2  0
 19 20  1  0
 20 21  1  0
 20 22  1  0
 22 23  2  0
 22 51  1  0
 23 24  1  0
 24 25  1  0
 24 52  1  0
 24 53  1  0
 25 26  1  0
 25 27  1  0
 25 28  1  0
 28 29  1  0
 28 54  1  0
 28 55  1  0
 29 33  1  0
 29 30  1  0
 29 56  1  1
 30 31  1  0
 30 57  1  0
 30 58  1  0
 31 34  1  0
 31 32  1  0
 31 59  1  6
 32 33  1  0
 32 60  1  0
 32 61  1  0
 33 34  1  0
 33 62  1  6
 34 63  1  0
 34 64  1  0
 36 37  1  0
 37 65  1  0
M  CHG  1  25   1
M  END
>  <DOCK_score>  (1) 
-42.947121

>  <SMILES>  (1) 
CC=CSc1cc(C)cc([C@@H](O)c2ccc(-c3n[nH]cc3C[NH2+]CC3CC4CC3C4)o2)c1O

$$$$
