CC(c1ccnn1C)[C@H](Nc1[nH]cc(-c2ccc(N)cc2)[nH+]1)c1ccccc1
     RDKit          3D

 53 56  0  0  1  0  0  0  0  0999 V2000
  128.3653  137.2146  161.3693 C   0  0  0  0  0  0  0  0  0  0  0  0
  129.4657  136.7955  160.3924 C   0  0  1  0  0  0  0  0  0  0  0  0
  130.7768  136.6895  161.1281 C   0  0  0  0  0  0  0  0  0  0  0  0
  131.0427  135.8686  162.1704 C   0  0  0  0  0  0  0  0  0  0  0  0
  132.3694  136.0816  162.5584 C   0  0  0  0  0  0  0  0  0  0  0  0
  132.8800  137.0016  161.7807 N   0  0  0  0  0  0  0  0  0  0  0  0
  131.8956  137.3969  160.8657 N   0  0  0  0  0  0  0  0  0  0  0  0
  132.0514  138.4046  159.8138 C   0  0  0  0  0  0  0  0  0  0  0  0
  129.1139  135.4385  159.7794 C   0  0  2  0  0  0  0  0  0  0  0  0
  129.0275  134.6937  160.5706 H   0  0  0  0  0  0  0  0  0  0  0  0
  130.1676  135.0372  158.8440 N   0  0  0  0  0  0  0  0  0  0  0  0
  130.0681  133.8359  158.1632 C   0  0  0  0  0  0  0  0  0  0  0  0
  129.4386  132.7178  158.6163 N   0  0  0  0  0  0  0  0  0  0  0  0
  128.9833  132.6197  159.4671 H   0  0  0  0  0  0  0  0  0  0  0  0
  129.5677  131.7529  157.6456 C   0  0  0  0  0  0  0  0  0  0  0  0
  130.2715  132.3095  156.6291 C   0  0  0  0  0  0  0  0  0  0  0  0
  130.6530  131.6393  155.3618 C   0  0  0  0  0  0  0  0  0  0  0  0
  130.2113  132.1496  154.1419 C   0  0  0  0  0  0  0  0  0  0  0  0
  130.5719  131.5282  152.9649 C   0  0  0  0  0  0  0  0  0  0  0  0
  131.3656  130.3873  152.9948 C   0  0  0  0  0  0  0  0  0  0  0  0
  131.7253  129.7569  151.8012 N   0  0  0  0  0  0  0  0  0  0  0  0
  131.8023  129.8739  154.2100 C   0  0  0  0  0  0  0  0  0  0  0  0
  131.4490  130.4952  155.3892 C   0  0  0  0  0  0  0  0  0  0  0  0
  130.5600  133.5896  156.9734 N   0  0  0  0  0  0  0  0  0  0  0  0
  131.0534  134.2213  156.4271 H   0  0  0  0  0  0  0  0  0  0  0  0
  127.8028  135.5443  159.0439 C   0  0  0  0  0  0  0  0  0  0  0  0
  126.6166  135.2873  159.7053 C   0  0  0  0  0  0  0  0  0  0  0  0
  125.4137  135.3886  159.0318 C   0  0  0  0  0  0  0  0  0  0  0  0
  125.3977  135.7382  157.6944 C   0  0  0  0  0  0  0  0  0  0  0  0
  126.5843  135.9902  157.0316 C   0  0  0  0  0  0  0  0  0  0  0  0
  127.7869  135.8930  157.7063 C   0  0  0  0  0  0  0  0  0  0  0  0
  127.4170  137.2911  160.8372 H   0  0  0  0  0  0  0  0  0  0  0  0
  128.2788  136.4698  162.1605 H   0  0  0  0  0  0  0  0  0  0  0  0
  128.6160  138.1812  161.8060 H   0  0  0  0  0  0  0  0  0  0  0  0
  129.5522  137.5402  159.6012 H   0  0  0  0  0  0  0  0  0  0  0  0
  130.3525  135.1718  162.6225 H   0  0  0  0  0  0  0  0  0  0  0  0
  132.8825  135.5772  163.3639 H   0  0  0  0  0  0  0  0  0  0  0  0
  131.7817  139.3848  160.2068 H   0  0  0  0  0  0  0  0  0  0  0  0
  133.0881  138.4209  159.4771 H   0  0  0  0  0  0  0  0  0  0  0  0
  131.4007  138.1577  158.9750 H   0  0  0  0  0  0  0  0  0  0  0  0
  130.9349  135.6132  158.7016 H   0  0  0  0  0  0  0  0  0  0  0  0
  129.1822  130.7449  157.6850 H   0  0  0  0  0  0  0  0  0  0  0  0
  129.5907  133.0329  154.1185 H   0  0  0  0  0  0  0  0  0  0  0  0
  130.2334  131.9254  152.0193 H   0  0  0  0  0  0  0  0  0  0  0  0
  132.2793  128.9610  151.8212 H   0  0  0  0  0  0  0  0  0  0  0  0
  131.4208  130.1148  150.9526 H   0  0  0  0  0  0  0  0  0  0  0  0
  132.4187  128.9874  154.2308 H   0  0  0  0  0  0  0  0  0  0  0  0
  131.7889  130.0958  156.3334 H   0  0  0  0  0  0  0  0  0  0  0  0
  126.6293  135.0106  160.7491 H   0  0  0  0  0  0  0  0  0  0  0  0
  124.4865  135.1922  159.5496 H   0  0  0  0  0  0  0  0  0  0  0  0
  124.4580  135.8147  157.1675 H   0  0  0  0  0  0  0  0  0  0  0  0
  126.5719  136.2632  155.9868 H   0  0  0  0  0  0  0  0  0  0  0  0
  128.7140  136.0899  157.1884 H   0  0  0  0  0  0  0  0  0  0  0  0
  1  2  1  0
  1 32  1  0
  1 33  1  0
  1 34  1  0
  2  3  1  0
  2  9  1  0
  2 35  1  6
  3  7  1  0
  3  4  2  0
  4  5  1  0
  4 36  1  0
  5  6  2  0
  5 37  1  0
  6  7  1  0
  7  8  1  0
  8 38  1  0
  8 39  1  0
  8 40  1  0
  9 10  1  1
  9 11  1  0
  9 26  1  0
 11 41  1  0
 12 11  1  0
 12 24  2  0
 12 13  1  0
 13 14  1  0
 13 15  1  0
 15 16  2  0
 15 42  1  0
 16 17  1  0
 16 24  1  0
 17 23  1  0
 17 18  2  0
 18 19  1  0
 18 43  1  0
 19 20  2  0
 19 44  1  0
 20 21  1  0
 20 22  1  0
 21 45  1  0
 21 46  1  0
 22 23  2  0
 22 47  1  0
 23 48  1  0
 24 25  1  0
 26 31  1  0
 26 27  2  0
 27 28  1  0
 27 49  1  0
 28 29  2  0
 28 50  1  0
 29 30  1  0
 29 51  1  0
 30 31  2  0
 30 52  1  0
 31 53  1  0
M  CHG  1  24   1
M  END
>  <DOCK_score>  (1) 
-60.924225

>  <SMILES>  (1) 
CC(c1ccnn1C)[C@H](Nc1[nH]cc(-c2ccc(N)cc2)[nH+]1)c1ccccc1

$$$$
