CCc1ccc(-c2c[nH]c(N[C@@H](CC=C3C=C(C)CC3)c3ccc(F)cc3)[nH+]2)cc1
     RDKit          3D

 59 62  0  0  1  0  0  0  0  0999 V2000
  130.6236  128.4081  151.7062 C   0  0  0  0  0  0  0  0  0  0  0  0
  131.6958  129.4401  152.0613 C   0  0  0  0  0  0  0  0  0  0  0  0
  131.2909  130.1749  153.3132 C   0  0  0  0  0  0  0  0  0  0  0  0
  131.6754  129.6914  154.5503 C   0  0  0  0  0  0  0  0  0  0  0  0
  131.3124  130.3631  155.7001 C   0  0  0  0  0  0  0  0  0  0  0  0
  130.5472  131.5247  155.6130 C   0  0  0  0  0  0  0  0  0  0  0  0
  130.1492  132.2481  156.8454 C   0  0  0  0  0  0  0  0  0  0  0  0
  129.4092  131.7432  157.8634 C   0  0  0  0  0  0  0  0  0  0  0  0
  129.2777  132.7439  158.7952 N   0  0  0  0  0  0  0  0  0  0  0  0
  128.7995  132.6858  159.6371 H   0  0  0  0  0  0  0  0  0  0  0  0
  129.9419  133.8321  158.3189 C   0  0  0  0  0  0  0  0  0  0  0  0
  130.0508  135.0545  158.9595 N   0  0  0  0  0  0  0  0  0  0  0  0
  128.9807  135.5135  159.8486 C   0  0  1  0  0  0  0  0  0  0  0  0
  128.8537  134.7999  160.6627 H   0  0  0  0  0  0  0  0  0  0  0  0
  129.3475  136.8831  160.4234 C   0  0  0  0  0  0  0  0  0  0  0  0
  130.6339  136.7737  161.2006 C   0  0  0  0  0  0  0  0  0  0  0  0
  131.1463  137.8475  161.7917 C   0  0  0  0  0  0  0  0  0  0  0  0
  130.5789  139.2012  161.7788 C   0  0  0  0  0  0  0  0  0  0  0  0
  131.3180  140.0580  162.4570 C   0  0  0  0  0  0  0  0  0  0  0  0
  130.9971  141.5207  162.6254 C   0  0  0  0  0  0  0  0  0  0  0  0
  132.5280  139.3729  163.0403 C   0  0  0  0  0  0  0  0  0  0  0  0
  132.4200  137.8997  162.6088 C   0  0  0  0  0  0  0  0  0  0  0  0
  127.6942  135.6230  159.0714 C   0  0  0  0  0  0  0  0  0  0  0  0
  126.4837  135.4173  159.7067 C   0  0  0  0  0  0  0  0  0  0  0  0
  125.3031  135.5223  158.9961 C   0  0  0  0  0  0  0  0  0  0  0  0
  125.3335  135.8232  157.6448 C   0  0  0  0  0  0  0  0  0  0  0  0
  124.1803  135.9216  156.9481 F   0  0  0  0  0  0  0  0  0  0  0  0
  126.5467  136.0239  157.0085 C   0  0  0  0  0  0  0  0  0  0  0  0
  127.7258  135.9236  157.7223 C   0  0  0  0  0  0  0  0  0  0  0  0
  130.4662  133.5301  157.1563 N   0  0  0  0  0  0  0  0  0  0  0  0
  130.9945  134.1284  156.6050 H   0  0  0  0  0  0  0  0  0  0  0  0
  130.1577  132.0045  154.3638 C   0  0  0  0  0  0  0  0  0  0  0  0
  130.5313  131.3278  153.2205 C   0  0  0  0  0  0  0  0  0  0  0  0
  130.5181  127.6978  152.5262 H   0  0  0  0  0  0  0  0  0  0  0  0
  129.6728  128.9142  151.5393 H   0  0  0  0  0  0  0  0  0  0  0  0
  130.9164  127.8768  150.8007 H   0  0  0  0  0  0  0  0  0  0  0  0
  132.6464  128.9347  152.2277 H   0  0  0  0  0  0  0  0  0  0  0  0
  131.8011  130.1511  151.2408 H   0  0  0  0  0  0  0  0  0  0  0  0
  132.2643  128.7885  154.6168 H   0  0  0  0  0  0  0  0  0  0  0  0
  131.6171  129.9871  156.6655 H   0  0  0  0  0  0  0  0  0  0  0  0
  129.0010  130.7454  157.9289 H   0  0  0  0  0  0  0  0  0  0  0  0
  130.8357  135.6070  158.8198 H   0  0  0  0  0  0  0  0  0  0  0  0
  129.4742  137.5967  159.6093 H   0  0  0  0  0  0  0  0  0  0  0  0
  128.5512  137.2246  161.0850 H   0  0  0  0  0  0  0  0  0  0  0  0
  131.1394  135.8223  161.2768 H   0  0  0  0  0  0  0  0  0  0  0  0
  129.6623  139.4652  161.2724 H   0  0  0  0  0  0  0  0  0  0  0  0
  130.0683  141.7514  162.1037 H   0  0  0  0  0  0  0  0  0  0  0  0
  130.8845  141.7482  163.6854 H   0  0  0  0  0  0  0  0  0  0  0  0
  131.8063  142.1206  162.2090 H   0  0  0  0  0  0  0  0  0  0  0  0
  133.4405  139.8191  162.6447 H   0  0  0  0  0  0  0  0  0  0  0  0
  132.5143  139.4461  164.1276 H   0  0  0  0  0  0  0  0  0  0  0  0
  132.3416  137.2494  163.4801 H   0  0  0  0  0  0  0  0  0  0  0  0
  133.2776  137.6190  161.9976 H   0  0  0  0  0  0  0  0  0  0  0  0
  126.4605  135.1785  160.7597 H   0  0  0  0  0  0  0  0  0  0  0  0
  124.3574  135.3656  159.4935 H   0  0  0  0  0  0  0  0  0  0  0  0
  126.5716  136.2584  155.9545 H   0  0  0  0  0  0  0  0  0  0  0  0
  128.6722  136.0804  157.2263 H   0  0  0  0  0  0  0  0  0  0  0  0
  129.5646  132.9042  154.2905 H   0  0  0  0  0  0  0  0  0  0  0  0
  130.2298  131.6985  152.2519 H   0  0  0  0  0  0  0  0  0  0  0  0
  1  2  1  0
  1 34  1  0
  1 35  1  0
  1 36  1  0
  2  3  1  0
  2 37  1  0
  2 38  1  0
  3 33  2  0
  3  4  1  0
  4  5  2  0
  4 39  1  0
  5  6  1  0
  5 40  1  0
  6  7  1  0
  6 32  2  0
  7 30  1  0
  7  8  2  0
  8  9  1  0
  8 41  1  0
  9 10  1  0
  9 11  1  0
 11 12  1  0
 11 30  2  0
 12 13  1  0
 12 42  1  0
 13 14  1  1
 13 15  1  0
 13 23  1  0
 15 16  1  0
 15 43  1  0
 15 44  1  0
 16 17  2  0
 16 45  1  0
 17 22  1  0
 17 18  1  0
 18 19  2  0
 18 46  1  0
 19 20  1  0
 19 21  1  0
 20 47  1  0
 20 48  1  0
 20 49  1  0
 21 22  1  0
 21 50  1  0
 21 51  1  0
 22 52  1  0
 22 53  1  0
 23 29  1  0
 23 24  2  0
 24 25  1  0
 24 54  1  0
 25 26  2  0
 25 55  1  0
 26 27  1  0
 26 28  1  0
 28 29  2  0
 28 56  1  0
 29 57  1  0
 30 31  1  0
 32 33  1  0
 32 58  1  0
 33 59  1  0
M  CHG  1  30   1
M  END
>  <DOCK_score>  (1) 
-62.401886

>  <SMILES>  (1) 
CCc1ccc(-c2c[nH]c(N[C@@H](CC=C3C=C(C)CC3)c3ccc(F)cc3)[nH+]2)cc1

$$$$
