Cc1ccccc1C[NH+]=C(NCc1cccs1)N[C@H]1C[C@@H](O)C1
     RDKit          3D

 47 49  0  0  1  0  0  0  0  0999 V2000
  131.2667  139.4847  158.6984 C   0  0  0  0  0  0  0  0  0  0  0  0
  132.3114  138.8671  159.5916 C   0  0  0  0  0  0  0  0  0  0  0  0
  133.6090  139.3441  159.5701 C   0  0  0  0  0  0  0  0  0  0  0  0
  134.5683  138.7742  160.3857 C   0  0  0  0  0  0  0  0  0  0  0  0
  134.2296  137.7299  161.2260 C   0  0  0  0  0  0  0  0  0  0  0  0
  132.9313  137.2566  161.2514 C   0  0  0  0  0  0  0  0  0  0  0  0
  131.9715  137.8269  160.4360 C   0  0  0  0  0  0  0  0  0  0  0  0
  130.5560  137.3104  160.4632 C   0  0  0  0  0  0  0  0  0  0  0  0
  130.4095  136.2351  159.4792 N   0  0  0  0  0  0  0  0  0  0  0  0
  130.9516  136.2366  158.6747 H   0  0  0  0  0  0  0  0  0  0  0  0
  129.5508  135.2763  159.6846 C   0  0  0  0  0  0  0  0  0  0  0  0
  129.7903  134.0196  159.1812 N   0  0  0  0  0  0  0  0  0  0  0  0
  131.0105  133.7579  158.4139 C   0  0  0  0  0  0  0  0  0  0  0  0
  131.0312  132.3150  157.9797 C   0  0  0  0  0  0  0  0  0  0  0  0
  131.5673  131.3105  158.6747 C   0  0  0  0  0  0  0  0  0  0  0  0
  131.4643  130.0668  158.0759 C   0  0  0  0  0  0  0  0  0  0  0  0
  130.8525  130.0626  156.8905 C   0  0  0  0  0  0  0  0  0  0  0  0
  130.3591  131.6989  156.4756 S   0  0  0  0  0  0  0  0  0  0  0  0
  128.4084  135.5203  160.4094 N   0  0  0  0  0  0  0  0  0  0  0  0
  127.4432  134.4426  160.6403 C   0  0  1  0  0  0  0  0  0  0  0  0
  127.9094  133.4580  160.6790 H   0  0  0  0  0  0  0  0  0  0  0  0
  126.4829  134.7158  161.8100 C   0  0  0  0  0  0  0  0  0  0  0  0
  125.3741  134.1001  160.9404 C   0  0  1  0  0  0  0  0  0  0  0  0
  125.2734  133.0213  161.0603 H   0  0  0  0  0  0  0  0  0  0  0  0
  124.1249  134.7878  161.0341 O   0  0  0  0  0  0  0  0  0  0  0  0
  126.2140  134.5085  159.7187 C   0  0  0  0  0  0  0  0  0  0  0  0
  130.7825  140.3092  159.2215 H   0  0  0  0  0  0  0  0  0  0  0  0
  131.7400  139.8585  157.7903 H   0  0  0  0  0  0  0  0  0  0  0  0
  130.5220  138.7330  158.4367 H   0  0  0  0  0  0  0  0  0  0  0  0
  133.8737  140.1595  158.9133 H   0  0  0  0  0  0  0  0  0  0  0  0
  135.5828  139.1442  160.3660 H   0  0  0  0  0  0  0  0  0  0  0  0
  134.9794  137.2844  161.8630 H   0  0  0  0  0  0  0  0  0  0  0  0
  132.6666  136.4408  161.9079 H   0  0  0  0  0  0  0  0  0  0  0  0
  129.8688  138.1211  160.2207 H   0  0  0  0  0  0  0  0  0  0  0  0
  130.3284  136.9265  161.4577 H   0  0  0  0  0  0  0  0  0  0  0  0
  129.1511  133.3060  159.3341 H   0  0  0  0  0  0  0  0  0  0  0  0
  131.0320  134.4022  157.5349 H   0  0  0  0  0  0  0  0  0  0  0  0
  131.8817  133.9628  159.0359 H   0  0  0  0  0  0  0  0  0  0  0  0
  132.0433  131.4562  159.6331 H   0  0  0  0  0  0  0  0  0  0  0  0
  131.8532  129.1684  158.5322 H   0  0  0  0  0  0  0  0  0  0  0  0
  130.6854  129.1880  156.2793 H   0  0  0  0  0  0  0  0  0  0  0  0
  128.2412  136.4060  160.7679 H   0  0  0  0  0  0  0  0  0  0  0  0
  126.7087  134.1358  162.7048 H   0  0  0  0  0  0  0  0  0  0  0  0
  126.3386  135.7759  162.0179 H   0  0  0  0  0  0  0  0  0  0  0  0
  124.1651  135.7152  160.7632 H   0  0  0  0  0  0  0  0  0  0  0  0
  125.9950  135.5120  159.3539 H   0  0  0  0  0  0  0  0  0  0  0  0
  126.2226  133.7611  158.9252 H   0  0  0  0  0  0  0  0  0  0  0  0
  1  2  1  0
  1 27  1  0
  1 28  1  0
  1 29  1  0
  2  7  2  0
  2  3  1  0
  3  4  2  0
  3 30  1  0
  4  5  1  0
  4 31  1  0
  5  6  2  0
  5 32  1  0
  6  7  1  0
  6 33  1  0
  7  8  1  0
  8  9  1  0
  8 34  1  0
  8 35  1  0
  9 10  1  0
 11  9  2  0
 11 12  1  0
 11 19  1  0
 12 13  1  0
 12 36  1  0
 13 14  1  0
 13 37  1  0
 13 38  1  0
 14 18  1  0
 14 15  2  0
 15 16  1  0
 15 39  1  0
 16 17  2  0
 16 40  1  0
 17 18  1  0
 17 41  1  0
 19 20  1  0
 19 42  1  0
 20 21  1  1
 20 26  1  0
 20 22  1  0
 22 23  1  0
 22 43  1  0
 22 44  1  0
 23 24  1  1
 23 25  1  0
 23 26  1  0
 25 45  1  0
 26 46  1  0
 26 47  1  0
M  CHG  1   9   1
M  END
>  <DOCK_score>  (1) 
-48.242168

>  <SMILES>  (1) 
Cc1ccccc1C[NH+]=C(NCc1cccs1)N[C@H]1C[C@@H](O)C1

$$$$
