Cc1c(OCC2=CCCC2)cccc1N1CC[NH+](C(c2ccccc2)c2ccccc2)CC1
     RDKit          3D

 68 72  0  0  1  0  0  0  0  0999 V2000
  133.5529  139.0904  163.1917 C   0  0  0  0  0  0  0  0  0  0  0  0
  134.0066  139.5959  161.8465 C   0  0  0  0  0  0  0  0  0  0  0  0
  134.8853  140.6650  161.7667 C   0  0  0  0  0  0  0  0  0  0  0  0
  135.3384  141.2589  162.9019 O   0  0  0  0  0  0  0  0  0  0  0  0
  136.5392  140.7354  163.4732 C   0  0  0  0  0  0  0  0  0  0  0  0
  136.2591  140.2471  164.8711 C   0  0  0  0  0  0  0  0  0  0  0  0
  136.4290  139.0163  165.2711 C   0  0  0  0  0  0  0  0  0  0  0  0
  136.0568  138.8611  166.7273 C   0  0  0  0  0  0  0  0  0  0  0  0
  135.2257  140.1228  167.0571 C   0  0  0  0  0  0  0  0  0  0  0  0
  135.7453  141.1180  165.9939 C   0  0  0  0  0  0  0  0  0  0  0  0
  135.3065  141.1250  160.5270 C   0  0  0  0  0  0  0  0  0  0  0  0
  134.8464  140.5224  159.3714 C   0  0  0  0  0  0  0  0  0  0  0  0
  133.9659  139.4609  159.4462 C   0  0  0  0  0  0  0  0  0  0  0  0
  133.5410  138.9957  160.6849 C   0  0  0  0  0  0  0  0  0  0  0  0
  132.6510  137.9220  160.7610 N   0  0  0  0  0  0  0  0  0  0  0  0
  133.2515  136.6999  160.2079 C   0  0  0  0  0  0  0  0  0  0  0  0
  132.2695  135.5368  160.3640 C   0  0  0  0  0  0  0  0  0  0  0  0
  131.0207  135.8521  159.6579 N   0  0  0  0  0  0  0  0  0  0  0  0
  131.2175  136.0099  158.6809 H   0  0  0  0  0  0  0  0  0  0  0  0
  130.0849  134.7277  159.7929 C   0  0  0  0  0  0  0  0  0  0  0  0
  128.8035  135.0510  159.0686 C   0  0  0  0  0  0  0  0  0  0  0  0
  127.6066  134.5184  159.5101 C   0  0  0  0  0  0  0  0  0  0  0  0
  126.4307  134.8187  158.8485 C   0  0  0  0  0  0  0  0  0  0  0  0
  126.4524  135.6431  157.7399 C   0  0  0  0  0  0  0  0  0  0  0  0
  127.6503  136.1714  157.2945 C   0  0  0  0  0  0  0  0  0  0  0  0
  128.8257  135.8754  157.9593 C   0  0  0  0  0  0  0  0  0  0  0  0
  130.7000  133.4879  159.1965 C   0  0  0  0  0  0  0  0  0  0  0  0
  130.4970  133.1889  157.8623 C   0  0  0  0  0  0  0  0  0  0  0  0
  131.0653  132.0541  157.3141 C   0  0  0  0  0  0  0  0  0  0  0  0
  131.8279  131.2130  158.1027 C   0  0  0  0  0  0  0  0  0  0  0  0
  132.0266  131.5095  159.4382 C   0  0  0  0  0  0  0  0  0  0  0  0
  131.4626  132.6469  159.9851 C   0  0  0  0  0  0  0  0  0  0  0  0
  130.4202  137.0607  160.2375 C   0  0  0  0  0  0  0  0  0  0  0  0
  131.3868  138.2365  160.0804 C   0  0  0  0  0  0  0  0  0  0  0  0
  132.6490  139.6199  163.4929 H   0  0  0  0  0  0  0  0  0  0  0  0
  133.3440  138.0225  163.1269 H   0  0  0  0  0  0  0  0  0  0  0  0
  134.3377  139.2631  163.9282 H   0  0  0  0  0  0  0  0  0  0  0  0
  137.2969  141.5183  163.5068 H   0  0  0  0  0  0  0  0  0  0  0  0
  136.8999  139.9066  162.8642 H   0  0  0  0  0  0  0  0  0  0  0  0
  136.7886  138.2141  164.6438 H   0  0  0  0  0  0  0  0  0  0  0  0
  136.9531  138.8245  167.3464 H   0  0  0  0  0  0  0  0  0  0  0  0
  135.4570  137.9628  166.8724 H   0  0  0  0  0  0  0  0  0  0  0  0
  135.4391  140.4797  168.0646 H   0  0  0  0  0  0  0  0  0  0  0  0
  134.1598  139.9339  166.9284 H   0  0  0  0  0  0  0  0  0  0  0  0
  134.9339  141.7540  165.6402 H   0  0  0  0  0  0  0  0  0  0  0  0
  136.5517  141.7258  166.4046 H   0  0  0  0  0  0  0  0  0  0  0  0
  135.9947  141.9551  160.4651 H   0  0  0  0  0  0  0  0  0  0  0  0
  135.1755  140.8826  158.4079 H   0  0  0  0  0  0  0  0  0  0  0  0
  133.6078  138.9919  158.5417 H   0  0  0  0  0  0  0  0  0  0  0  0
  133.4730  136.8496  159.1512 H   0  0  0  0  0  0  0  0  0  0  0  0
  134.1728  136.4725  160.7442 H   0  0  0  0  0  0  0  0  0  0  0  0
  132.0589  135.3786  161.4216 H   0  0  0  0  0  0  0  0  0  0  0  0
  132.7074  134.6324  159.9415 H   0  0  0  0  0  0  0  0  0  0  0  0
  129.8725  134.5564  160.8481 H   0  0  0  0  0  0  0  0  0  0  0  0
  127.5900  133.8706  160.3741 H   0  0  0  0  0  0  0  0  0  0  0  0
  125.4951  134.4057  159.1957 H   0  0  0  0  0  0  0  0  0  0  0  0
  125.5347  135.8743  157.2196 H   0  0  0  0  0  0  0  0  0  0  0  0
  127.6677  136.8152  156.4276 H   0  0  0  0  0  0  0  0  0  0  0  0
  129.7614  136.2878  157.6115 H   0  0  0  0  0  0  0  0  0  0  0  0
  129.8974  133.8436  157.2472 H   0  0  0  0  0  0  0  0  0  0  0  0
  130.9097  131.8224  156.2709 H   0  0  0  0  0  0  0  0  0  0  0  0
  132.2682  130.3242  157.6755 H   0  0  0  0  0  0  0  0  0  0  0  0
  132.6221  130.8521  160.0544 H   0  0  0  0  0  0  0  0  0  0  0  0
  131.6177  132.8783  161.0286 H   0  0  0  0  0  0  0  0  0  0  0  0
  130.2190  136.8948  161.2959 H   0  0  0  0  0  0  0  0  0  0  0  0
  129.4870  137.2861  159.7214 H   0  0  0  0  0  0  0  0  0  0  0  0
  130.9477  139.1302  160.5237 H   0  0  0  0  0  0  0  0  0  0  0  0
  131.5776  138.4115  159.0216 H   0  0  0  0  0  0  0  0  0  0  0  0
  1  2  1  0
  1 35  1  0
  1 36  1  0
  1 37  1  0
  2 14  2  0
  2  3  1  0
  3  4  1  0
  3 11  2  0
  4  5  1  0
  5  6  1  0
  5 38  1  0
  5 39  1  0
  6 10  1  0
  6  7  2  0
  7  8  1  0
  7 40  1  0
  8  9  1  0
  8 41  1  0
  8 42  1  0
  9 10  1  0
  9 43  1  0
  9 44  1  0
 10 45  1  0
 10 46  1  0
 11 12  1  0
 11 47  1  0
 12 13  2  0
 12 48  1  0
 13 14  1  0
 13 49  1  0
 14 15  1  0
 15 34  1  0
 15 16  1  0
 16 17  1  0
 16 50  1  0
 16 51  1  0
 17 18  1  0
 17 52  1  0
 17 53  1  0
 18 19  1  0
 18 20  1  0
 18 33  1  0
 20 21  1  0
 20 27  1  0
 20 54  1  0
 21 26  1  0
 21 22  2  0
 22 23  1  0
 22 55  1  0
 23 24  2  0
 23 56  1  0
 24 25  1  0
 24 57  1  0
 25 26  2  0
 25 58  1  0
 26 59  1  0
 27 32  1  0
 27 28  2  0
 28 29  1  0
 28 60  1  0
 29 30  2  0
 29 61  1  0
 30 31  1  0
 30 62  1  0
 31 32  2  0
 31 63  1  0
 32 64  1  0
 33 34  1  0
 33 65  1  0
 33 66  1  0
 34 67  1  0
 34 68  1  0
M  CHG  1  18   1
M  END
>  <DOCK_score>  (1) 
-56.1754

>  <SMILES>  (1) 
Cc1c(OCC2=CCCC2)cccc1N1CC[NH+](C(c2ccccc2)c2ccccc2)CC1

$$$$
