O[C@@H]1[C@H](O)C=C[C@H]1[NH+]=C(NCCc1cccs1)N[C@H]1C[C@@H](O)C1
     RDKit          3D

 47 49  0  0  1  0  0  0  0  0999 V2000
  129.6664  136.9027  162.6916 O   0  0  0  0  0  0  0  0  0  0  0  0
  130.7915  137.0227  161.8189 C   0  0  2  0  0  0  0  0  0  0  0  0
  131.3201  136.0733  161.7317 H   0  0  0  0  0  0  0  0  0  0  0  0
  131.7430  138.1464  162.2909 C   0  0  2  0  0  0  0  0  0  0  0  0
  132.5771  137.7283  162.8545 H   0  0  0  0  0  0  0  0  0  0  0  0
  131.0333  139.0981  163.0864 O   0  0  0  0  0  0  0  0  0  0  0  0
  132.2387  138.7905  161.0171 C   0  0  0  0  0  0  0  0  0  0  0  0
  131.4858  138.4645  160.0019 C   0  0  0  0  0  0  0  0  0  0  0  0
  130.3626  137.5487  160.4295 C   0  0  1  0  0  0  0  0  0  0  0  0
  129.4275  138.1039  160.5038 H   0  0  0  0  0  0  0  0  0  0  0  0
  130.2218  136.4381  159.4845 N   0  0  0  0  0  0  0  0  0  0  0  0
  130.7649  136.4131  158.6810 H   0  0  0  0  0  0  0  0  0  0  0  0
  129.3667  135.4837  159.7230 C   0  0  0  0  0  0  0  0  0  0  0  0
  129.2346  134.4416  158.8362 N   0  0  0  0  0  0  0  0  0  0  0  0
  130.0549  134.4037  157.6229 C   0  0  0  0  0  0  0  0  0  0  0  0
  129.7141  133.1494  156.8158 C   0  0  0  0  0  0  0  0  0  0  0  0
  129.9925  131.9250  157.6490 C   0  0  0  0  0  0  0  0  0  0  0  0
  131.1559  131.2739  157.6942 C   0  0  0  0  0  0  0  0  0  0  0  0
  131.1762  130.1735  158.5340 C   0  0  0  0  0  0  0  0  0  0  0  0
  130.0293  129.9311  159.1705 C   0  0  0  0  0  0  0  0  0  0  0  0
  128.8356  131.1403  158.7165 S   0  0  0  0  0  0  0  0  0  0  0  0
  128.5970  135.5192  160.8616 N   0  0  0  0  0  0  0  0  0  0  0  0
  127.6359  134.4465  161.1298 C   0  0  1  0  0  0  0  0  0  0  0  0
  128.1065  133.4665  161.2089 H   0  0  0  0  0  0  0  0  0  0  0  0
  126.6688  134.7602  162.2836 C   0  0  0  0  0  0  0  0  0  0  0  0
  125.5670  134.1059  161.4336 C   0  0  1  0  0  0  0  0  0  0  0  0
  125.4708  133.0321  161.5948 H   0  0  0  0  0  0  0  0  0  0  0  0
  124.3142  134.7906  161.4949 O   0  0  0  0  0  0  0  0  0  0  0  0
  126.4108  134.4706  160.2007 C   0  0  0  0  0  0  0  0  0  0  0  0
  129.2003  137.7352  162.8490 H   0  0  0  0  0  0  0  0  0  0  0  0
  131.5690  139.8520  163.3691 H   0  0  0  0  0  0  0  0  0  0  0  0
  133.1027  139.4354  160.9548 H   0  0  0  0  0  0  0  0  0  0  0  0
  131.6447  138.8049  158.9894 H   0  0  0  0  0  0  0  0  0  0  0  0
  128.5981  133.7313  159.0136 H   0  0  0  0  0  0  0  0  0  0  0  0
  131.1095  134.3835  157.8979 H   0  0  0  0  0  0  0  0  0  0  0  0
  129.8536  135.2894  157.0204 H   0  0  0  0  0  0  0  0  0  0  0  0
  130.3242  133.1211  155.9131 H   0  0  0  0  0  0  0  0  0  0  0  0
  128.6594  133.1696  156.5410 H   0  0  0  0  0  0  0  0  0  0  0  0
  132.0168  131.5820  157.1196 H   0  0  0  0  0  0  0  0  0  0  0  0
  132.0542  129.5582  158.6639 H   0  0  0  0  0  0  0  0  0  0  0  0
  129.8610  129.1193  159.8626 H   0  0  0  0  0  0  0  0  0  0  0  0
  128.6903  136.2544  161.4874 H   0  0  0  0  0  0  0  0  0  0  0  0
  126.8931  134.2165  163.2014 H   0  0  0  0  0  0  0  0  0  0  0  0
  126.5174  135.8270  162.4487 H   0  0  0  0  0  0  0  0  0  0  0  0
  124.3513  135.7070  161.1884 H   0  0  0  0  0  0  0  0  0  0  0  0
  126.1888  135.4581  159.7963 H   0  0  0  0  0  0  0  0  0  0  0  0
  126.4267  133.6930  159.4369 H   0  0  0  0  0  0  0  0  0  0  0  0
  1  2  1  0
  1 30  1  0
  2  3  1  6
  2  9  1  0
  2  4  1  0
  4  5  1  1
  4  6  1  0
  4  7  1  0
  6 31  1  0
  7  8  2  0
  7 32  1  0
  8  9  1  0
  8 33  1  0
  9 10  1  1
  9 11  1  0
 11 12  1  0
 13 11  2  0
 13 14  1  0
 13 22  1  0
 14 15  1  0
 14 34  1  0
 15 16  1  0
 15 35  1  0
 15 36  1  0
 16 17  1  0
 16 37  1  0
 16 38  1  0
 17 21  1  0
 17 18  2  0
 18 19  1  0
 18 39  1  0
 19 20  2  0
 19 40  1  0
 20 21  1  0
 20 41  1  0
 22 23  1  0
 22 42  1  0
 23 24  1  1
 23 29  1  0
 23 25  1  0
 25 26  1  0
 25 43  1  0
 25 44  1  0
 26 27  1  1
 26 28  1  0
 26 29  1  0
 28 45  1  0
 29 46  1  0
 29 47  1  0
M  CHG  1  11   1
M  END
>  <DOCK_score>  (1) 
-44.856243

>  <SMILES>  (1) 
O[C@@H]1[C@H](O)C=C[C@H]1[NH+]=C(NCCc1cccs1)N[C@H]1C[C@@H](O)C1

$$$$
