Cc1[nH+]c(N[C@@H]2C[C@H](C(=O)c3cccc4cccnc34)C[C@@H]2O)[nH]c1-c1ccccc1
     RDKit          3D

 56 60  0  0  1  0  0  0  0  0999 V2000
  129.2959  130.7953  158.6765 C   0  0  0  0  0  0  0  0  0  0  0  0
  129.6717  132.2097  158.3168 C   0  0  0  0  0  0  0  0  0  0  0  0
  129.5774  133.2763  159.1214 N   0  0  0  0  0  0  0  0  0  0  0  0
  129.2539  133.2600  160.0357 H   0  0  0  0  0  0  0  0  0  0  0  0
  129.9928  134.3471  158.4842 C   0  0  0  0  0  0  0  0  0  0  0  0
  130.0391  135.6273  159.0048 N   0  0  0  0  0  0  0  0  0  0  0  0
  129.6005  135.8750  160.3804 C   0  0  2  0  0  0  0  0  0  0  0  0
  128.7102  135.2856  160.6001 H   0  0  0  0  0  0  0  0  0  0  0  0
  129.3035  137.3719  160.5774 C   0  0  0  0  0  0  0  0  0  0  0  0
  130.2628  137.8705  161.6779 C   0  0  2  0  0  0  0  0  0  0  0  0
  129.7725  137.8460  162.6511 H   0  0  0  0  0  0  0  0  0  0  0  0
  130.7469  139.2628  161.3645 C   0  0  0  0  0  0  0  0  0  0  0  0
  130.0395  140.0245  160.7388 O   0  0  0  0  0  0  0  0  0  0  0  0
  132.0726  139.6971  161.8161 C   0  0  0  0  0  0  0  0  0  0  0  0
  132.2355  140.3096  163.0562 C   0  0  0  0  0  0  0  0  0  0  0  0
  133.4906  140.7143  163.4844 C   0  0  0  0  0  0  0  0  0  0  0  0
  134.6012  140.5421  162.7139 C   0  0  0  0  0  0  0  0  0  0  0  0
  134.5095  139.9372  161.4502 C   0  0  0  0  0  0  0  0  0  0  0  0
  135.6467  139.7518  160.6411 C   0  0  0  0  0  0  0  0  0  0  0  0
  135.4801  139.1560  159.4224 C   0  0  0  0  0  0  0  0  0  0  0  0
  134.2123  138.7518  159.0139 C   0  0  0  0  0  0  0  0  0  0  0  0
  133.1549  138.9269  159.7726 N   0  0  0  0  0  0  0  0  0  0  0  0
  133.2507  139.5011  160.9701 C   0  0  0  0  0  0  0  0  0  0  0  0
  131.4407  136.8655  161.6387 C   0  0  0  0  0  0  0  0  0  0  0  0
  130.7300  135.5162  161.3680 C   0  0  2  0  0  0  0  0  0  0  0  0
  130.3153  135.1116  162.2912 H   0  0  0  0  0  0  0  0  0  0  0  0
  131.6359  134.5840  160.7744 O   0  0  0  0  0  0  0  0  0  0  0  0
  130.3642  133.9890  157.2253 N   0  0  0  0  0  0  0  0  0  0  0  0
  130.7068  134.5778  156.5347 H   0  0  0  0  0  0  0  0  0  0  0  0
  130.1592  132.6243  157.1183 C   0  0  0  0  0  0  0  0  0  0  0  0
  130.4201  131.7824  155.9320 C   0  0  0  0  0  0  0  0  0  0  0  0
  129.7555  132.0379  154.7310 C   0  0  0  0  0  0  0  0  0  0  0  0
  130.0087  131.2523  153.6257 C   0  0  0  0  0  0  0  0  0  0  0  0
  130.9092  130.2051  153.7089 C   0  0  0  0  0  0  0  0  0  0  0  0
  131.5667  129.9427  154.8978 C   0  0  0  0  0  0  0  0  0  0  0  0
  131.3278  130.7245  156.0089 C   0  0  0  0  0  0  0  0  0  0  0  0
  130.1632  130.2838  159.0939 H   0  0  0  0  0  0  0  0  0  0  0  0
  128.4928  130.8089  159.4134 H   0  0  0  0  0  0  0  0  0  0  0  0
  128.9598  130.2701  157.7825 H   0  0  0  0  0  0  0  0  0  0  0  0
  130.3621  136.3613  158.4591 H   0  0  0  0  0  0  0  0  0  0  0  0
  129.4857  137.9140  159.6496 H   0  0  0  0  0  0  0  0  0  0  0  0
  128.2691  137.5091  160.8927 H   0  0  0  0  0  0  0  0  0  0  0  0
  131.3768  140.4666  163.6921 H   0  0  0  0  0  0  0  0  0  0  0  0
  133.5901  141.1830  164.4523 H   0  0  0  0  0  0  0  0  0  0  0  0
  135.5618  140.8740  163.0790 H   0  0  0  0  0  0  0  0  0  0  0  0
  136.6231  140.0712  160.9741 H   0  0  0  0  0  0  0  0  0  0  0  0
  136.3317  138.9983  158.7771 H   0  0  0  0  0  0  0  0  0  0  0  0
  134.0954  138.2823  158.0482 H   0  0  0  0  0  0  0  0  0  0  0  0
  132.1292  137.1087  160.8295 H   0  0  0  0  0  0  0  0  0  0  0  0
  131.9630  136.8450  162.5953 H   0  0  0  0  0  0  0  0  0  0  0  0
  131.2246  133.7496  160.5103 H   0  0  0  0  0  0  0  0  0  0  0  0
  129.0488  132.8519  154.6662 H   0  0  0  0  0  0  0  0  0  0  0  0
  129.4992  131.4521  152.6946 H   0  0  0  0  0  0  0  0  0  0  0  0
  131.1002  129.5902  152.8419 H   0  0  0  0  0  0  0  0  0  0  0  0
  132.2687  129.1240  154.9559 H   0  0  0  0  0  0  0  0  0  0  0  0
  131.8422  130.5191  156.9360 H   0  0  0  0  0  0  0  0  0  0  0  0
  1  2  1  0
  1 37  1  0
  1 38  1  0
  1 39  1  0
  2 30  2  0
  2  3  1  0
  3  4  1  0
  3  5  2  0
  5  6  1  0
  5 28  1  0
  6  7  1  0
  6 40  1  0
  7  8  1  1
  7 25  1  0
  7  9  1  0
  9 10  1  0
  9 41  1  0
  9 42  1  0
 10 11  1  1
 10 12  1  0
 10 24  1  0
 12 13  2  0
 12 14  1  0
 14 23  1  0
 14 15  2  0
 15 16  1  0
 15 43  1  0
 16 17  2  0
 16 44  1  0
 17 18  1  0
 17 45  1  0
 18 23  2  0
 18 19  1  0
 19 20  2  0
 19 46  1  0
 20 21  1  0
 20 47  1  0
 21 22  2  0
 21 48  1  0
 22 23  1  0
 24 25  1  0
 24 49  1  0
 24 50  1  0
 25 26  1  1
 25 27  1  0
 27 51  1  0
 28 29  1  0
 28 30  1  0
 30 31  1  0
 31 36  1  0
 31 32  2  0
 32 33  1  0
 32 52  1  0
 33 34  2  0
 33 53  1  0
 34 35  1  0
 34 54  1  0
 35 36  2  0
 35 55  1  0
 36 56  1  0
M  CHG  1   3   1
M  END
>  <DOCK_score>  (1) 
-58.568054

>  <SMILES>  (1) 
Cc1[nH+]c(N[C@@H]2C[C@H](C(=O)c3cccc4cccnc34)C[C@@H]2O)[nH]c1-c1ccccc1

$$$$
