CC1(C)C([NH2+]C2c3cc(O)ccc3-c3ccc(O)cc32)C[C@@H]1O
     RDKit          3D

 45 48  0  0  1  0  0  0  0  0999 V2000
  130.8700  135.8198  162.5875 C   0  0  0  0  0  0  0  0  0  0  0  0
  131.3050  136.1061  161.1488 C   0  0  0  0  0  0  0  0  0  0  0  0
  132.5160  135.2770  160.7165 C   0  0  0  0  0  0  0  0  0  0  0  0
  130.1464  136.0779  160.1379 C   0  0  1  0  0  0  0  0  0  0  0  0
  129.0143  135.2443  160.5634 N   0  0  0  0  0  0  0  0  0  0  0  0
  128.4484  135.7570  161.2230 H   0  0  0  0  0  0  0  0  0  0  0  0
  129.3612  134.4034  161.0001 H   0  0  0  0  0  0  0  0  0  0  0  0
  128.2010  134.8885  159.3930 C   0  0  0  0  0  0  0  0  0  0  0  0
  126.8447  134.3944  159.8334 C   0  0  0  0  0  0  0  0  0  0  0  0
  125.8282  134.9950  160.5441 C   0  0  0  0  0  0  0  0  0  0  0  0
  124.6611  134.2930  160.8140 C   0  0  0  0  0  0  0  0  0  0  0  0
  123.6584  134.8851  161.5143 O   0  0  0  0  0  0  0  0  0  0  0  0
  124.5188  132.9859  160.3679 C   0  0  0  0  0  0  0  0  0  0  0  0
  125.5311  132.3833  159.6529 C   0  0  0  0  0  0  0  0  0  0  0  0
  126.7091  133.0838  159.3828 C   0  0  0  0  0  0  0  0  0  0  0  0
  127.9366  132.6832  158.6516 C   0  0  0  0  0  0  0  0  0  0  0  0
  128.2804  131.4849  158.0216 C   0  0  0  0  0  0  0  0  0  0  0  0
  129.5040  131.3587  157.4000 C   0  0  0  0  0  0  0  0  0  0  0  0
  130.3990  132.4203  157.3977 C   0  0  0  0  0  0  0  0  0  0  0  0
  131.6046  132.2914  156.7843 O   0  0  0  0  0  0  0  0  0  0  0  0
  130.0618  133.6133  158.0229 C   0  0  0  0  0  0  0  0  0  0  0  0
  128.8393  133.7435  158.6454 C   0  0  0  0  0  0  0  0  0  0  0  0
  129.9552  137.5746  160.4344 C   0  0  0  0  0  0  0  0  0  0  0  0
  131.4402  137.6050  160.8329 C   0  0  2  0  0  0  0  0  0  0  0  0
  131.6446  138.2205  161.7090 H   0  0  0  0  0  0  0  0  0  0  0  0
  132.3201  137.8830  159.7419 O   0  0  0  0  0  0  0  0  0  0  0  0
  130.4168  134.8298  162.6399 H   0  0  0  0  0  0  0  0  0  0  0  0
  131.7395  135.8563  163.2440 H   0  0  0  0  0  0  0  0  0  0  0  0
  130.1442  136.5689  162.9036 H   0  0  0  0  0  0  0  0  0  0  0  0
  132.8999  135.6602  159.7712 H   0  0  0  0  0  0  0  0  0  0  0  0
  133.2930  135.3441  161.4781 H   0  0  0  0  0  0  0  0  0  0  0  0
  132.2180  134.2359  160.5924 H   0  0  0  0  0  0  0  0  0  0  0  0
  130.4626  135.8723  159.1152 H   0  0  0  0  0  0  0  0  0  0  0  0
  128.0908  135.7510  158.7357 H   0  0  0  0  0  0  0  0  0  0  0  0
  125.9392  136.0119  160.8905 H   0  0  0  0  0  0  0  0  0  0  0  0
  123.8491  135.7946  161.7815 H   0  0  0  0  0  0  0  0  0  0  0  0
  123.6104  132.4410  160.5786 H   0  0  0  0  0  0  0  0  0  0  0  0
  125.4148  131.3680  159.3036 H   0  0  0  0  0  0  0  0  0  0  0  0
  127.5870  130.6569  158.0212 H   0  0  0  0  0  0  0  0  0  0  0  0
  129.7674  130.4314  156.9133 H   0  0  0  0  0  0  0  0  0  0  0  0
  132.1584  133.0825  156.8354 H   0  0  0  0  0  0  0  0  0  0  0  0
  130.7578  134.4391  158.0217 H   0  0  0  0  0  0  0  0  0  0  0  0
  129.7283  138.1696  159.5497 H   0  0  0  0  0  0  0  0  0  0  0  0
  129.2764  137.7721  161.2641 H   0  0  0  0  0  0  0  0  0  0  0  0
  132.0763  137.4406  158.9173 H   0  0  0  0  0  0  0  0  0  0  0  0
  1  2  1  0
  1 27  1  0
  1 28  1  0
  1 29  1  0
  2 24  1  0
  2  3  1  0
  2  4  1  0
  3 30  1  0
  3 31  1  0
  3 32  1  0
  4  5  1  0
  4 23  1  0
  4 33  1  6
  5  6  1  0
  5  7  1  0
  5  8  1  0
  8 22  1  0
  8  9  1  0
  8 34  1  0
  9 15  1  0
  9 10  2  0
 10 11  1  0
 10 35  1  0
 11 12  1  0
 11 13  2  0
 12 36  1  0
 13 14  1  0
 13 37  1  0
 14 15  2  0
 14 38  1  0
 15 16  1  0
 16 22  2  0
 16 17  1  0
 17 18  2  0
 17 39  1  0
 18 19  1  0
 18 40  1  0
 19 20  1  0
 19 21  2  0
 20 41  1  0
 21 22  1  0
 21 42  1  0
 23 24  1  0
 23 43  1  0
 23 44  1  0
 24 25  1  1
 24 26  1  0
 26 45  1  0
M  CHG  1   5   1
M  END
>  <DOCK_score>  (1) 
-46.58482

>  <SMILES>  (1) 
CC1(C)C([NH2+]C2c3cc(O)ccc3-c3ccc(O)cc32)C[C@@H]1O

$$$$
