Oc1cccc(CNC2=C[C@H]([NH2+]C3CC=CC3)CCC2)c1
     RDKit          3D

 46 48  0  0  1  0  0  0  0  0999 V2000
  123.8445  134.7968  161.9688 O   0  0  0  0  0  0  0  0  0  0  0  0
  124.5926  134.1145  161.0623 C   0  0  0  0  0  0  0  0  0  0  0  0
  124.5177  132.7303  161.0004 C   0  0  0  0  0  0  0  0  0  0  0  0
  125.2794  132.0392  160.0786 C   0  0  0  0  0  0  0  0  0  0  0  0
  126.1157  132.7256  159.2172 C   0  0  0  0  0  0  0  0  0  0  0  0
  126.1918  134.1047  159.2766 C   0  0  0  0  0  0  0  0  0  0  0  0
  127.1043  134.8494  158.3365 C   0  0  0  0  0  0  0  0  0  0  0  0
  127.8465  135.8690  159.0819 N   0  0  0  0  0  0  0  0  0  0  0  0
  128.9632  135.5101  159.8260 C   0  0  0  0  0  0  0  0  0  0  0  0
  129.9121  136.3935  159.9730 C   0  0  0  0  0  0  0  0  0  0  0  0
  131.1694  136.1503  160.7556 C   0  0  2  0  0  0  0  0  0  0  0  0
  131.0967  136.6510  161.7211 H   0  0  0  0  0  0  0  0  0  0  0  0
  132.3166  136.6915  160.0147 N   0  0  0  0  0  0  0  0  0  0  0  0
  133.1658  136.2600  160.3474 H   0  0  0  0  0  0  0  0  0  0  0  0
  132.2036  136.4971  159.0310 H   0  0  0  0  0  0  0  0  0  0  0  0
  132.3919  138.1440  160.2212 C   0  0  0  0  0  0  0  0  0  0  0  0
  133.3883  138.7943  159.2336 C   0  0  0  0  0  0  0  0  0  0  0  0
  134.0673  139.8818  160.0334 C   0  0  0  0  0  0  0  0  0  0  0  0
  133.8813  139.7092  161.3138 C   0  0  0  0  0  0  0  0  0  0  0  0
  133.0472  138.4780  161.5814 C   0  0  0  0  0  0  0  0  0  0  0  0
  131.3705  134.6498  160.9768 C   0  0  0  0  0  0  0  0  0  0  0  0
  130.0625  134.0582  161.5169 C   0  0  0  0  0  0  0  0  0  0  0  0
  129.0059  134.1292  160.4124 C   0  0  0  0  0  0  0  0  0  0  0  0
  125.4362  134.8003  160.2008 C   0  0  0  0  0  0  0  0  0  0  0  0
  123.9674  135.7554  161.9381 H   0  0  0  0  0  0  0  0  0  0  0  0
  123.8641  132.1939  161.6725 H   0  0  0  0  0  0  0  0  0  0  0  0
  125.2215  130.9618  160.0300 H   0  0  0  0  0  0  0  0  0  0  0  0
  126.7103  132.1834  158.4969 H   0  0  0  0  0  0  0  0  0  0  0  0
  126.5111  135.3284  157.5576 H   0  0  0  0  0  0  0  0  0  0  0  0
  127.8055  134.1501  157.8808 H   0  0  0  0  0  0  0  0  0  0  0  0
  127.5582  136.7948  159.0557 H   0  0  0  0  0  0  0  0  0  0  0  0
  129.7854  137.3575  159.5029 H   0  0  0  0  0  0  0  0  0  0  0  0
  131.4053  138.6001  160.1397 H   0  0  0  0  0  0  0  0  0  0  0  0
  134.1190  138.0606  158.8933 H   0  0  0  0  0  0  0  0  0  0  0  0
  132.8561  139.2234  158.3846 H   0  0  0  0  0  0  0  0  0  0  0  0
  134.6327  140.6947  159.6021 H   0  0  0  0  0  0  0  0  0  0  0  0
  134.2725  140.3608  162.0811 H   0  0  0  0  0  0  0  0  0  0  0  0
  132.2831  138.6922  162.3287 H   0  0  0  0  0  0  0  0  0  0  0  0
  133.6808  137.6542  161.9101 H   0  0  0  0  0  0  0  0  0  0  0  0
  132.1707  134.4899  161.6996 H   0  0  0  0  0  0  0  0  0  0  0  0
  131.6261  134.1714  160.0313 H   0  0  0  0  0  0  0  0  0  0  0  0
  129.7292  134.6339  162.3803 H   0  0  0  0  0  0  0  0  0  0  0  0
  130.2219  133.0192  161.8051 H   0  0  0  0  0  0  0  0  0  0  0  0
  129.2525  133.4117  159.6297 H   0  0  0  0  0  0  0  0  0  0  0  0
  128.0295  133.8837  160.8301 H   0  0  0  0  0  0  0  0  0  0  0  0
  125.4991  135.8773  160.2496 H   0  0  0  0  0  0  0  0  0  0  0  0
  1  2  1  0
  1 25  1  0
  2 24  2  0
  2  3  1  0
  3  4  2  0
  3 26  1  0
  4  5  1  0
  4 27  1  0
  5  6  2  0
  5 28  1  0
  6  7  1  0
  6 24  1  0
  7  8  1  0
  7 29  1  0
  7 30  1  0
  8  9  1  0
  8 31  1  0
  9 23  1  0
  9 10  2  0
 10 11  1  0
 10 32  1  0
 11 12  1  1
 11 13  1  0
 11 21  1  0
 13 14  1  0
 13 15  1  0
 13 16  1  0
 16 20  1  0
 16 17  1  0
 16 33  1  0
 17 18  1  0
 17 34  1  0
 17 35  1  0
 18 19  2  0
 18 36  1  0
 19 20  1  0
 19 37  1  0
 20 38  1  0
 20 39  1  0
 21 22  1  0
 21 40  1  0
 21 41  1  0
 22 23  1  0
 22 42  1  0
 22 43  1  0
 23 44  1  0
 23 45  1  0
 24 46  1  0
M  CHG  1  13   1
M  END
>  <DOCK_score>  (1) 
-44.713108

>  <SMILES>  (1) 
Oc1cccc(CNC2=C[C@H]([NH2+]C3CC=CC3)CCC2)c1

$$$$
