Nc1ccc(Sc2ccc(N)cc2Nc2[nH]cc(-c3ccc(Br)cc3)[nH+]2)cc1
     RDKit          3D

 47 50  0  0  1  0  0  0  0  0999 V2000
  133.8843  139.6054  158.3907 N   0  0  0  0  0  0  0  0  0  0  0  0
  133.2159  138.6755  159.1960 C   0  0  0  0  0  0  0  0  0  0  0  0
  131.8929  138.8943  159.5574 C   0  0  0  0  0  0  0  0  0  0  0  0
  131.2336  137.9776  160.3519 C   0  0  0  0  0  0  0  0  0  0  0  0
  131.8936  136.8360  160.7894 C   0  0  0  0  0  0  0  0  0  0  0  0
  131.0526  135.6660  161.8034 S   0  0  0  0  0  0  0  0  0  0  0  0
  129.3764  135.8233  161.2834 C   0  0  0  0  0  0  0  0  0  0  0  0
  128.3993  136.1982  162.1937 C   0  0  0  0  0  0  0  0  0  0  0  0
  127.0843  136.3214  161.7868 C   0  0  0  0  0  0  0  0  0  0  0  0
  126.7372  136.0707  160.4654 C   0  0  0  0  0  0  0  0  0  0  0  0
  125.4045  136.1964  160.0569 N   0  0  0  0  0  0  0  0  0  0  0  0
  127.7116  135.6998  159.5488 C   0  0  0  0  0  0  0  0  0  0  0  0
  129.0307  135.5703  159.9555 C   0  0  0  0  0  0  0  0  0  0  0  0
  130.0148  135.1922  159.0344 N   0  0  0  0  0  0  0  0  0  0  0  0
  129.9204  133.9747  158.3810 C   0  0  0  0  0  0  0  0  0  0  0  0
  129.3444  132.8480  158.8828 N   0  0  0  0  0  0  0  0  0  0  0  0
  128.9292  132.7543  159.7543 H   0  0  0  0  0  0  0  0  0  0  0  0
  129.4595  131.8685  157.9269 C   0  0  0  0  0  0  0  0  0  0  0  0
  130.1017  132.4239  156.8693 C   0  0  0  0  0  0  0  0  0  0  0  0
  130.4484  131.7384  155.6004 C   0  0  0  0  0  0  0  0  0  0  0  0
  129.9448  132.2114  154.3899 C   0  0  0  0  0  0  0  0  0  0  0  0
  130.2707  131.5704  153.2122 C   0  0  0  0  0  0  0  0  0  0  0  0
  131.0915  130.4560  153.2320 C   0  0  0  0  0  0  0  0  0  0  0  0
  131.5271  129.5775  151.6151 Br  0  0  0  0  0  0  0  0  0  0  0  0
  131.5989  129.9856  154.4309 C   0  0  0  0  0  0  0  0  0  0  0  0
  131.2791  130.6193  155.6142 C   0  0  0  0  0  0  0  0  0  0  0  0
  130.3762  133.7155  157.1795 N   0  0  0  0  0  0  0  0  0  0  0  0
  130.8349  134.3470  156.6035 H   0  0  0  0  0  0  0  0  0  0  0  0
  133.2189  136.6201  160.4321 C   0  0  0  0  0  0  0  0  0  0  0  0
  133.8760  137.5347  159.6336 C   0  0  0  0  0  0  0  0  0  0  0  0
  133.4233  140.4024  158.0853 H   0  0  0  0  0  0  0  0  0  0  0  0
  134.8083  139.4528  158.1383 H   0  0  0  0  0  0  0  0  0  0  0  0
  131.3798  139.7816  159.2173 H   0  0  0  0  0  0  0  0  0  0  0  0
  130.2050  138.1481  160.6335 H   0  0  0  0  0  0  0  0  0  0  0  0
  128.6666  136.3945  163.2217 H   0  0  0  0  0  0  0  0  0  0  0  0
  126.3253  136.6135  162.4973 H   0  0  0  0  0  0  0  0  0  0  0  0
  124.7239  136.4585  160.6962 H   0  0  0  0  0  0  0  0  0  0  0  0
  125.1614  136.0215  159.1343 H   0  0  0  0  0  0  0  0  0  0  0  0
  127.4417  135.5088  158.5207 H   0  0  0  0  0  0  0  0  0  0  0  0
  130.7626  135.7829  158.8538 H   0  0  0  0  0  0  0  0  0  0  0  0
  129.1061  130.8507  158.0027 H   0  0  0  0  0  0  0  0  0  0  0  0
  129.3004  133.0780  154.3738 H   0  0  0  0  0  0  0  0  0  0  0  0
  129.8811  131.9361  152.2736 H   0  0  0  0  0  0  0  0  0  0  0  0
  132.2422  129.1181  154.4407 H   0  0  0  0  0  0  0  0  0  0  0  0
  131.6722  130.2490  156.5496 H   0  0  0  0  0  0  0  0  0  0  0  0
  133.7334  135.7350  160.7757 H   0  0  0  0  0  0  0  0  0  0  0  0
  134.9051  137.3652  159.3527 H   0  0  0  0  0  0  0  0  0  0  0  0
  1  2  1  0
  1 31  1  0
  1 32  1  0
  2 30  2  0
  2  3  1  0
  3  4  2  0
  3 33  1  0
  4  5  1  0
  4 34  1  0
  5  6  1  0
  5 29  2  0
  6  7  1  0
  7 13  1  0
  7  8  2  0
  8  9  1  0
  8 35  1  0
  9 10  2  0
  9 36  1  0
 10 11  1  0
 10 12  1  0
 11 37  1  0
 11 38  1  0
 12 13  2  0
 12 39  1  0
 13 14  1  0
 14 40  1  0
 15 14  1  0
 15 27  2  0
 15 16  1  0
 16 17  1  0
 16 18  1  0
 18 19  2  0
 18 41  1  0
 19 20  1  0
 19 27  1  0
 20 26  1  0
 20 21  2  0
 21 22  1  0
 21 42  1  0
 22 23  2  0
 22 43  1  0
 23 24  1  0
 23 25  1  0
 25 26  2  0
 25 44  1  0
 26 45  1  0
 27 28  1  0
 29 30  1  0
 29 46  1  0
 30 47  1  0
M  CHG  1  27   1
M  END
>  <DOCK_score>  (1) 
-53.350071

>  <SMILES>  (1) 
Nc1ccc(Sc2ccc(N)cc2Nc2[nH]cc(-c3ccc(Br)cc3)[nH+]2)cc1

$$$$
