Cc1ccnc(SC[C@@H](Nc2[nH]cc(-c3ccc(N)cc3)[nH+]2)C2CCOCC2)n1
     RDKit          3D

 56 59  0  0  1  0  0  0  0  0999 V2000
  125.2369  132.0031  161.1387 C   0  0  0  0  0  0  0  0  0  0  0  0
  125.6385  133.4352  161.3821 C   0  0  0  0  0  0  0  0  0  0  0  0
  125.2203  134.0960  162.5268 C   0  0  0  0  0  0  0  0  0  0  0  0
  125.6118  135.4127  162.7124 C   0  0  0  0  0  0  0  0  0  0  0  0
  126.3679  135.9962  161.7972 N   0  0  0  0  0  0  0  0  0  0  0  0
  126.7503  135.3364  160.7133 C   0  0  0  0  0  0  0  0  0  0  0  0
  127.7572  136.1527  159.5198 S   0  0  0  0  0  0  0  0  0  0  0  0
  129.1938  136.5569  160.5441 C   0  0  0  0  0  0  0  0  0  0  0  0
  130.2041  135.4096  160.4810 C   0  0  1  0  0  0  0  0  0  0  0  0
  129.7396  134.4956  160.8511 H   0  0  0  0  0  0  0  0  0  0  0  0
  130.6332  135.2125  159.0942 N   0  0  0  0  0  0  0  0  0  0  0  0
  130.4181  133.9959  158.4694 C   0  0  0  0  0  0  0  0  0  0  0  0
  129.8164  132.9121  159.0306 N   0  0  0  0  0  0  0  0  0  0  0  0
  129.4646  132.8530  159.9326 H   0  0  0  0  0  0  0  0  0  0  0  0
  129.7998  131.9161  158.0830 C   0  0  0  0  0  0  0  0  0  0  0  0
  130.3912  132.4206  156.9720 C   0  0  0  0  0  0  0  0  0  0  0  0
  130.5975  131.7024  155.6904 C   0  0  0  0  0  0  0  0  0  0  0  0
  130.0264  132.1912  154.5164 C   0  0  0  0  0  0  0  0  0  0  0  0
  130.2243  131.5252  153.3253 C   0  0  0  0  0  0  0  0  0  0  0  0
  130.9829  130.3609  153.2968 C   0  0  0  0  0  0  0  0  0  0  0  0
  131.1779  129.6852  152.0898 N   0  0  0  0  0  0  0  0  0  0  0  0
  131.5488  129.8689  154.4668 C   0  0  0  0  0  0  0  0  0  0  0  0
  131.3584  130.5346  155.6592 C   0  0  0  0  0  0  0  0  0  0  0  0
  130.7554  133.7000  157.2377 N   0  0  0  0  0  0  0  0  0  0  0  0
  131.1969  134.2997  156.6161 H   0  0  0  0  0  0  0  0  0  0  0  0
  131.4184  135.7513  161.3468 C   0  0  0  0  0  0  0  0  0  0  0  0
  132.0777  137.0307  160.8228 C   0  0  0  0  0  0  0  0  0  0  0  0
  133.3371  137.3197  161.6442 C   0  0  0  0  0  0  0  0  0  0  0  0
  134.2225  136.2007  161.5688 O   0  0  0  0  0  0  0  0  0  0  0  0
  133.6754  134.9876  162.0898 C   0  0  0  0  0  0  0  0  0  0  0  0
  132.4312  134.6036  161.2849 C   0  0  0  0  0  0  0  0  0  0  0  0
  126.3936  134.0765  160.5062 N   0  0  0  0  0  0  0  0  0  0  0  0
  125.9834  131.3378  161.5725 H   0  0  0  0  0  0  0  0  0  0  0  0
  124.2685  131.8136  161.6015 H   0  0  0  0  0  0  0  0  0  0  0  0
  125.1685  131.8223  160.0661 H   0  0  0  0  0  0  0  0  0  0  0  0
  124.6033  133.5958  163.2585 H   0  0  0  0  0  0  0  0  0  0  0  0
  125.3070  135.9541  163.5958 H   0  0  0  0  0  0  0  0  0  0  0  0
  129.6582  137.4708  160.1739 H   0  0  0  0  0  0  0  0  0  0  0  0
  128.8746  136.7036  161.5759 H   0  0  0  0  0  0  0  0  0  0  0  0
  131.0679  135.9343  158.6137 H   0  0  0  0  0  0  0  0  0  0  0  0
  129.3935  130.9224  158.2010 H   0  0  0  0  0  0  0  0  0  0  0  0
  129.4327  133.0932  154.5392 H   0  0  0  0  0  0  0  0  0  0  0  0
  129.7854  131.9058  152.4149 H   0  0  0  0  0  0  0  0  0  0  0  0
  131.7077  128.8730  152.0688 H   0  0  0  0  0  0  0  0  0  0  0  0
  130.7835  130.0282  151.2726 H   0  0  0  0  0  0  0  0  0  0  0  0
  132.1379  128.9639  154.4423 H   0  0  0  0  0  0  0  0  0  0  0  0
  131.7984  130.1520  156.5682 H   0  0  0  0  0  0  0  0  0  0  0  0
  131.0999  135.9014  162.3784 H   0  0  0  0  0  0  0  0  0  0  0  0
  132.3499  136.8977  159.7757 H   0  0  0  0  0  0  0  0  0  0  0  0
  131.3812  137.8639  160.9161 H   0  0  0  0  0  0  0  0  0  0  0  0
  133.0593  137.4941  162.6837 H   0  0  0  0  0  0  0  0  0  0  0  0
  133.8348  138.2045  161.2474 H   0  0  0  0  0  0  0  0  0  0  0  0
  133.4022  135.1315  163.1351 H   0  0  0  0  0  0  0  0  0  0  0  0
  134.4170  134.1923  162.0139 H   0  0  0  0  0  0  0  0  0  0  0  0
  131.9870  133.7027  161.7084 H   0  0  0  0  0  0  0  0  0  0  0  0
  132.7098  134.4194  160.2474 H   0  0  0  0  0  0  0  0  0  0  0  0
  1  2  1  0
  1 33  1  0
  1 34  1  0
  1 35  1  0
  2 32  2  0
  2  3  1  0
  3  4  2  0
  3 36  1  0
  4  5  1  0
  4 37  1  0
  5  6  2  0
  6  7  1  0
  6 32  1  0
  7  8  1  0
  8  9  1  0
  8 38  1  0
  8 39  1  0
  9 10  1  1
  9 11  1  0
  9 26  1  0
 11 40  1  0
 12 11  1  0
 12 24  2  0
 12 13  1  0
 13 14  1  0
 13 15  1  0
 15 16  2  0
 15 41  1  0
 16 17  1  0
 16 24  1  0
 17 23  1  0
 17 18  2  0
 18 19  1  0
 18 42  1  0
 19 20  2  0
 19 43  1  0
 20 21  1  0
 20 22  1  0
 21 44  1  0
 21 45  1  0
 22 23  2  0
 22 46  1  0
 23 47  1  0
 24 25  1  0
 26 31  1  0
 26 27  1  0
 26 48  1  0
 27 28  1  0
 27 49  1  0
 27 50  1  0
 28 29  1  0
 28 51  1  0
 28 52  1  0
 29 30  1  0
 30 31  1  0
 30 53  1  0
 30 54  1  0
 31 55  1  0
 31 56  1  0
M  CHG  1  24   1
M  END
>  <DOCK_score>  (1) 
-58.382103

>  <SMILES>  (1) 
Cc1ccnc(SC[C@@H](Nc2[nH]cc(-c3ccc(N)cc3)[nH+]2)C2CCOCC2)n1

$$$$
