Cc1n[nH]cc1C[NH2+]Cc1c[nH]nc1-c1ccc(N[C@H]2C[C@H](c3ccc(F)cc3F)C2)o1
     RDKit          3D

 57 61  0  0  1  0  0  0  0  0999 V2000
  133.4372  139.3542  158.7197 C   0  0  0  0  0  0  0  0  0  0  0  0
  133.5222  138.6134  160.0293 C   0  0  0  0  0  0  0  0  0  0  0  0
  134.6128  138.3970  160.7191 N   0  0  0  0  0  0  0  0  0  0  0  0
  134.2681  137.6713  161.8665 N   0  0  0  0  0  0  0  0  0  0  0  0
  134.8799  137.3692  162.5558 H   0  0  0  0  0  0  0  0  0  0  0  0
  132.9345  137.4661  161.8433 C   0  0  0  0  0  0  0  0  0  0  0  0
  132.4481  138.0419  160.7193 C   0  0  0  0  0  0  0  0  0  0  0  0
  131.0053  138.0587  160.2848 C   0  0  0  0  0  0  0  0  0  0  0  0
  130.7289  136.8758  159.4587 N   0  0  0  0  0  0  0  0  0  0  0  0
  131.3254  136.8870  158.6450 H   0  0  0  0  0  0  0  0  0  0  0  0
  129.7628  136.8870  159.1678 H   0  0  0  0  0  0  0  0  0  0  0  0
  130.9906  135.6602  160.2411 C   0  0  0  0  0  0  0  0  0  0  0  0
  130.7070  134.4469  159.3937 C   0  0  0  0  0  0  0  0  0  0  0  0
  131.5925  133.8061  158.6008 C   0  0  0  0  0  0  0  0  0  0  0  0
  130.9543  132.7717  158.0117 N   0  0  0  0  0  0  0  0  0  0  0  0
  131.3475  132.1420  157.3871 H   0  0  0  0  0  0  0  0  0  0  0  0
  129.6252  132.7689  158.4536 N   0  0  0  0  0  0  0  0  0  0  0  0
  129.4695  133.7777  159.2881 C   0  0  0  0  0  0  0  0  0  0  0  0
  128.2207  134.1427  159.9884 C   0  0  0  0  0  0  0  0  0  0  0  0
  127.0321  133.4913  159.8881 C   0  0  0  0  0  0  0  0  0  0  0  0
  126.1213  134.1738  160.7186 C   0  0  0  0  0  0  0  0  0  0  0  0
  126.7971  135.2054  161.2833 C   0  0  0  0  0  0  0  0  0  0  0  0
  126.2677  136.1326  162.1734 N   0  0  0  0  0  0  0  0  0  0  0  0
  127.1280  136.7501  163.1858 C   0  0  1  0  0  0  0  0  0  0  0  0
  127.8332  136.0464  163.6281 H   0  0  0  0  0  0  0  0  0  0  0  0
  127.7776  138.0649  162.7233 C   0  0  0  0  0  0  0  0  0  0  0  0
  126.5310  138.7812  163.2688 C   0  0  2  0  0  0  0  0  0  0  0  0
  125.7277  138.8771  162.5383 H   0  0  0  0  0  0  0  0  0  0  0  0
  126.8395  140.0764  163.9748 C   0  0  0  0  0  0  0  0  0  0  0  0
  126.0274  140.5121  165.0050 C   0  0  0  0  0  0  0  0  0  0  0  0
  126.3123  141.6968  165.6571 C   0  0  0  0  0  0  0  0  0  0  0  0
  127.4056  142.4544  165.2716 C   0  0  0  0  0  0  0  0  0  0  0  0
  127.6811  143.6149  165.9059 F   0  0  0  0  0  0  0  0  0  0  0  0
  128.2161  142.0219  164.2365 C   0  0  0  0  0  0  0  0  0  0  0  0
  127.9331  140.8322  163.5877 C   0  0  0  0  0  0  0  0  0  0  0  0
  128.7231  140.4090  162.5768 F   0  0  0  0  0  0  0  0  0  0  0  0
  126.3580  137.5865  164.2214 C   0  0  0  0  0  0  0  0  0  0  0  0
  128.0661  135.1767  160.8421 O   0  0  0  0  0  0  0  0  0  0  0  0
  133.2740  140.4147  158.9121 H   0  0  0  0  0  0  0  0  0  0  0  0
  134.3681  139.2242  158.1676 H   0  0  0  0  0  0  0  0  0  0  0  0
  132.6082  138.9597  158.1321 H   0  0  0  0  0  0  0  0  0  0  0  0
  132.3586  136.9369  162.5880 H   0  0  0  0  0  0  0  0  0  0  0  0
  130.8111  138.9605  159.7044 H   0  0  0  0  0  0  0  0  0  0  0  0
  130.3609  138.0466  161.1639 H   0  0  0  0  0  0  0  0  0  0  0  0
  130.3462  135.6482  161.1201 H   0  0  0  0  0  0  0  0  0  0  0  0
  132.0342  135.6482  160.5554 H   0  0  0  0  0  0  0  0  0  0  0  0
  132.6295  134.0738  158.4622 H   0  0  0  0  0  0  0  0  0  0  0  0
  126.8254  132.6182  159.2870 H   0  0  0  0  0  0  0  0  0  0  0  0
  125.0826  133.9230  160.8760 H   0  0  0  0  0  0  0  0  0  0  0  0
  125.3286  136.3708  162.1242 H   0  0  0  0  0  0  0  0  0  0  0  0
  128.6933  138.3121  163.2603 H   0  0  0  0  0  0  0  0  0  0  0  0
  127.8864  138.1412  161.6414 H   0  0  0  0  0  0  0  0  0  0  0  0
  125.1719  139.9243  165.3032 H   0  0  0  0  0  0  0  0  0  0  0  0
  125.6795  142.0342  166.4646 H   0  0  0  0  0  0  0  0  0  0  0  0
  129.0692  142.6119  163.9353 H   0  0  0  0  0  0  0  0  0  0  0  0
  125.3209  137.2765  164.3490 H   0  0  0  0  0  0  0  0  0  0  0  0
  126.8856  137.7028  165.1681 H   0  0  0  0  0  0  0  0  0  0  0  0
  1  2  1  0
  1 39  1  0
  1 40  1  0
  1 41  1  0
  2  7  1  0
  2  3  2  0
  3  4  1  0
  4  5  1  0
  4  6  1  0
  6  7  2  0
  6 42  1  0
  7  8  1  0
  8  9  1  0
  8 43  1  0
  8 44  1  0
  9 10  1  0
  9 11  1  0
  9 12  1  0
 12 13  1  0
 12 45  1  0
 12 46  1  0
 13 18  1  0
 13 14  2  0
 14 15  1  0
 14 47  1  0
 15 16  1  0
 15 17  1  0
 17 18  2  0
 18 19  1  0
 19 38  1  0
 19 20  2  0
 20 21  1  0
 20 48  1  0
 21 22  2  0
 21 49  1  0
 22 23  1  0
 22 38  1  0
 23 24  1  0
 23 50  1  0
 24 25  1  1
 24 37  1  0
 24 26  1  0
 26 27  1  0
 26 51  1  0
 26 52  1  0
 27 28  1  6
 27 29  1  0
 27 37  1  0
 29 35  1  0
 29 30  2  0
 30 31  1  0
 30 53  1  0
 31 32  2  0
 31 54  1  0
 32 33  1  0
 32 34  1  0
 34 35  2  0
 34 55  1  0
 35 36  1  0
 37 56  1  0
 37 57  1  0
M  CHG  1   9   1
M  END
>  <DOCK_score>  (1) 
-47.77491

>  <SMILES>  (1) 
Cc1n[nH]cc1C[NH2+]Cc1c[nH]nc1-c1ccc(N[C@H]2C[C@H](c3ccc(F)cc3F)C2)o1

$$$$
