[NH3+][C@H](C(=O)Nc1cccc(O)c1)c1cccc(NCC2CCc3ccccc3CC2)c1
     RDKit          3D

 61 64  0  0  1  0  0  0  0  0999 V2000
  129.8497  136.6279  158.7090 N   0  0  0  0  0  0  0  0  0  0  0  0
  130.7738  136.9496  158.4627 H   0  0  0  0  0  0  0  0  0  0  0  0
  129.2234  136.7767  157.9320 H   0  0  0  0  0  0  0  0  0  0  0  0
  129.5177  137.1411  159.5117 H   0  0  0  0  0  0  0  0  0  0  0  0
  129.8995  135.1953  159.0300 C   0  0  2  0  0  0  0  0  0  0  0  0
  130.2582  134.6408  158.1629 H   0  0  0  0  0  0  0  0  0  0  0  0
  128.5194  134.7147  159.3980 C   0  0  0  0  0  0  0  0  0  0  0  0
  127.5861  135.4893  159.3932 O   0  0  0  0  0  0  0  0  0  0  0  0
  128.3221  133.4239  159.7322 N   0  0  0  0  0  0  0  0  0  0  0  0
  127.0407  132.9778  160.0736 C   0  0  0  0  0  0  0  0  0  0  0  0
  126.6708  131.6632  159.8179 C   0  0  0  0  0  0  0  0  0  0  0  0
  125.4057  131.2228  160.1549 C   0  0  0  0  0  0  0  0  0  0  0  0
  124.5066  132.0865  160.7515 C   0  0  0  0  0  0  0  0  0  0  0  0
  124.8687  133.4021  161.0042 C   0  0  0  0  0  0  0  0  0  0  0  0
  123.9819  134.2516  161.5860 O   0  0  0  0  0  0  0  0  0  0  0  0
  126.1376  133.8477  160.6677 C   0  0  0  0  0  0  0  0  0  0  0  0
  130.8348  134.9727  160.1906 C   0  0  0  0  0  0  0  0  0  0  0  0
  131.9446  134.1617  160.0376 C   0  0  0  0  0  0  0  0  0  0  0  0
  132.8055  133.9552  161.0996 C   0  0  0  0  0  0  0  0  0  0  0  0
  132.5593  134.5583  162.3176 C   0  0  0  0  0  0  0  0  0  0  0  0
  131.4455  135.3729  162.4748 C   0  0  0  0  0  0  0  0  0  0  0  0
  131.1935  135.9844  163.7051 N   0  0  0  0  0  0  0  0  0  0  0  0
  129.8469  136.4668  164.0212 C   0  0  0  0  0  0  0  0  0  0  0  0
  129.7041  137.9187  163.5599 C   0  0  0  0  0  0  0  0  0  0  0  0
  130.4547  138.8079  164.5313 C   0  0  0  0  0  0  0  0  0  0  0  0
  130.5462  140.2413  164.0021 C   0  0  0  0  0  0  0  0  0  0  0  0
  129.2873  140.9815  164.4030 C   0  0  0  0  0  0  0  0  0  0  0  0
  129.3554  141.9679  165.3712 C   0  0  0  0  0  0  0  0  0  0  0  0
  128.2074  142.6463  165.7378 C   0  0  0  0  0  0  0  0  0  0  0  0
  126.9998  142.3380  165.1391 C   0  0  0  0  0  0  0  0  0  0  0  0
  126.9379  141.3511  164.1724 C   0  0  0  0  0  0  0  0  0  0  0  0
  128.0902  140.6759  163.8098 C   0  0  0  0  0  0  0  0  0  0  0  0
  128.0201  139.5951  162.7511 C   0  0  0  0  0  0  0  0  0  0  0  0
  128.2280  138.2386  163.4291 C   0  0  0  0  0  0  0  0  0  0  0  0
  130.5858  135.5832  161.4038 C   0  0  0  0  0  0  0  0  0  0  0  0
  129.0685  132.8044  159.7360 H   0  0  0  0  0  0  0  0  0  0  0  0
  127.3728  130.9852  159.3555 H   0  0  0  0  0  0  0  0  0  0  0  0
  125.1200  130.2006  159.9556 H   0  0  0  0  0  0  0  0  0  0  0  0
  123.5196  131.7382  161.0177 H   0  0  0  0  0  0  0  0  0  0  0  0
  124.3245  135.1458  161.7216 H   0  0  0  0  0  0  0  0  0  0  0  0
  126.4226  134.8701  160.8673 H   0  0  0  0  0  0  0  0  0  0  0  0
  132.1395  133.6890  159.0862 H   0  0  0  0  0  0  0  0  0  0  0  0
  133.6718  133.3220  160.9765 H   0  0  0  0  0  0  0  0  0  0  0  0
  133.2324  134.3970  163.1467 H   0  0  0  0  0  0  0  0  0  0  0  0
  131.9102  136.0893  164.3502 H   0  0  0  0  0  0  0  0  0  0  0  0
  129.1099  135.8486  163.5087 H   0  0  0  0  0  0  0  0  0  0  0  0
  129.6838  136.4098  165.0974 H   0  0  0  0  0  0  0  0  0  0  0  0
  130.1670  138.0152  162.5778 H   0  0  0  0  0  0  0  0  0  0  0  0
  129.9339  138.8121  165.4889 H   0  0  0  0  0  0  0  0  0  0  0  0
  131.4610  138.4136  164.6735 H   0  0  0  0  0  0  0  0  0  0  0  0
  130.6319  140.2257  162.9155 H   0  0  0  0  0  0  0  0  0  0  0  0
  131.4157  140.7365  164.4341 H   0  0  0  0  0  0  0  0  0  0  0  0
  130.2996  142.2065  165.8379 H   0  0  0  0  0  0  0  0  0  0  0  0
  128.2541  143.4172  166.4926 H   0  0  0  0  0  0  0  0  0  0  0  0
  126.1041  142.8687  165.4265 H   0  0  0  0  0  0  0  0  0  0  0  0
  125.9960  141.1091  163.7028 H   0  0  0  0  0  0  0  0  0  0  0  0
  128.8021  139.7575  162.0092 H   0  0  0  0  0  0  0  0  0  0  0  0
  127.0429  139.6175  162.2687 H   0  0  0  0  0  0  0  0  0  0  0  0
  127.7448  137.4632  162.8349 H   0  0  0  0  0  0  0  0  0  0  0  0
  127.7775  138.2621  164.4214 H   0  0  0  0  0  0  0  0  0  0  0  0
  129.7213  136.2199  161.5213 H   0  0  0  0  0  0  0  0  0  0  0  0
  1  2  1  0
  1  3  1  0
  1  4  1  0
  1  5  1  0
  5  6  1  6
  5  7  1  0
  5 17  1  0
  7  8  2  0
  7  9  1  0
  9 10  1  0
  9 36  1  0
 10 16  1  0
 10 11  2  0
 11 12  1  0
 11 37  1  0
 12 13  2  0
 12 38  1  0
 13 14  1  0
 13 39  1  0
 14 15  1  0
 14 16  2  0
 15 40  1  0
 16 41  1  0
 17 35  1  0
 17 18  2  0
 18 19  1  0
 18 42  1  0
 19 20  2  0
 19 43  1  0
 20 21  1  0
 20 44  1  0
 21 22  1  0
 21 35  2  0
 22 23  1  0
 22 45  1  0
 23 24  1  0
 23 46  1  0
 23 47  1  0
 24 34  1  0
 24 25  1  0
 24 48  1  0
 25 26  1  0
 25 49  1  0
 25 50  1  0
 26 27  1  0
 26 51  1  0
 26 52  1  0
 27 32  2  0
 27 28  1  0
 28 29  2  0
 28 53  1  0
 29 30  1  0
 29 54  1  0
 30 31  2  0
 30 55  1  0
 31 32  1  0
 31 56  1  0
 32 33  1  0
 33 34  1  0
 33 57  1  0
 33 58  1  0
 34 59  1  0
 34 60  1  0
 35 61  1  0
M  CHG  1   1   1
M  END
>  <DOCK_score>  (1) 
-41.765938

>  <SMILES>  (1) 
[NH3+][C@H](C(=O)Nc1cccc(O)c1)c1cccc(NCC2CCc3ccccc3CC2)c1

$$$$
