Cc1ccc2c(Cc3noc(-c4c[nH]nc4[C@H]4CCC[NH2+]C4)n3)c[nH]c2c1
     RDKit          3D

 50 54  0  0  1  0  0  0  0  0999 V2000
  135.5773  140.6827  159.1451 C   0  0  0  0  0  0  0  0  0  0  0  0
  135.1429  139.4807  159.9437 C   0  0  0  0  0  0  0  0  0  0  0  0
  134.6162  138.3751  159.2897 C   0  0  0  0  0  0  0  0  0  0  0  0
  134.2166  137.2762  159.9961 C   0  0  0  0  0  0  0  0  0  0  0  0
  134.3380  137.2645  161.3871 C   0  0  0  0  0  0  0  0  0  0  0  0
  134.0185  136.2854  162.4289 C   0  0  0  0  0  0  0  0  0  0  0  0
  133.4209  134.9177  162.2207 C   0  0  0  0  0  0  0  0  0  0  0  0
  131.9176  135.0149  162.2622 C   0  0  0  0  0  0  0  0  0  0  0  0
  131.1694  134.8941  163.3189 N   0  0  0  0  0  0  0  0  0  0  0  0
  129.9991  135.0224  163.0279 O   0  0  0  0  0  0  0  0  0  0  0  0
  129.8825  135.2457  161.7097 C   0  0  0  0  0  0  0  0  0  0  0  0
  128.6293  135.4543  160.9579 C   0  0  0  0  0  0  0  0  0  0  0  0
  127.4696  136.0219  161.4422 C   0  0  0  0  0  0  0  0  0  0  0  0
  126.5714  136.0186  160.4414 N   0  0  0  0  0  0  0  0  0  0  0  0
  125.6626  136.3537  160.4936 H   0  0  0  0  0  0  0  0  0  0  0  0
  127.1699  135.4495  159.3117 N   0  0  0  0  0  0  0  0  0  0  0  0
  128.3959  135.1137  159.6077 C   0  0  0  0  0  0  0  0  0  0  0  0
  129.3871  134.4690  158.6734 C   0  0  1  0  0  0  0  0  0  0  0  0
  130.3977  134.7668  158.9532 H   0  0  0  0  0  0  0  0  0  0  0  0
  129.2585  132.9457  158.7631 C   0  0  0  0  0  0  0  0  0  0  0  0
  130.2139  132.3023  157.7541 C   0  0  0  0  0  0  0  0  0  0  0  0
  129.8980  132.8294  156.3527 C   0  0  0  0  0  0  0  0  0  0  0  0
  130.0645  134.2870  156.3259 N   0  0  0  0  0  0  0  0  0  0  0  0
  129.9078  134.6244  155.3881 H   0  0  0  0  0  0  0  0  0  0  0  0
  131.0024  134.5228  156.6137 H   0  0  0  0  0  0  0  0  0  0  0  0
  129.1017  134.9160  157.2380 C   0  0  0  0  0  0  0  0  0  0  0  0
  131.1087  135.2367  161.2145 N   0  0  0  0  0  0  0  0  0  0  0  0
  134.3535  136.8400  163.6046 C   0  0  0  0  0  0  0  0  0  0  0  0
  134.8697  138.0906  163.4003 N   0  0  0  0  0  0  0  0  0  0  0  0
  135.1842  138.6847  164.0995 H   0  0  0  0  0  0  0  0  0  0  0  0
  134.8711  138.3823  162.0546 C   0  0  0  0  0  0  0  0  0  0  0  0
  135.2719  139.4904  161.3151 C   0  0  0  0  0  0  0  0  0  0  0  0
  136.6256  140.5744  158.8668 H   0  0  0  0  0  0  0  0  0  0  0  0
  134.9683  140.7601  158.2445 H   0  0  0  0  0  0  0  0  0  0  0  0
  135.4525  141.5831  159.7467 H   0  0  0  0  0  0  0  0  0  0  0  0
  134.5222  138.3836  158.2138 H   0  0  0  0  0  0  0  0  0  0  0  0
  133.8081  136.4196  159.4807 H   0  0  0  0  0  0  0  0  0  0  0  0
  133.7636  134.2478  163.0092 H   0  0  0  0  0  0  0  0  0  0  0  0
  133.7333  134.5284  161.2518 H   0  0  0  0  0  0  0  0  0  0  0  0
  127.3104  136.3959  162.4428 H   0  0  0  0  0  0  0  0  0  0  0  0
  129.5159  132.6168  159.7698 H   0  0  0  0  0  0  0  0  0  0  0  0
  128.2338  132.6525  158.5347 H   0  0  0  0  0  0  0  0  0  0  0  0
  131.2420  132.5543  158.0145 H   0  0  0  0  0  0  0  0  0  0  0  0
  130.0886  131.2197  157.7732 H   0  0  0  0  0  0  0  0  0  0  0  0
  130.5763  132.3732  155.6319 H   0  0  0  0  0  0  0  0  0  0  0  0
  128.8697  132.5771  156.0934 H   0  0  0  0  0  0  0  0  0  0  0  0
  128.0906  134.6187  156.9597 H   0  0  0  0  0  0  0  0  0  0  0  0
  129.1929  136.0001  157.1705 H   0  0  0  0  0  0  0  0  0  0  0  0
  134.2352  136.3680  164.5687 H   0  0  0  0  0  0  0  0  0  0  0  0
  135.6831  140.3553  161.8145 H   0  0  0  0  0  0  0  0  0  0  0  0
  1  2  1  0
  1 33  1  0
  1 34  1  0
  1 35  1  0
  2 32  2  0
  2  3  1  0
  3  4  2  0
  3 36  1  0
  4  5  1  0
  4 37  1  0
  5 31  2  0
  5  6  1  0
  6  7  1  0
  6 28  2  0
  7  8  1  0
  7 38  1  0
  7 39  1  0
  8 27  1  0
  8  9  2  0
  9 10  1  0
 10 11  1  0
 11 12  1  0
 11 27  2  0
 12 17  1  0
 12 13  2  0
 13 14  1  0
 13 40  1  0
 14 15  1  0
 14 16  1  0
 16 17  2  0
 17 18  1  0
 18 19  1  1
 18 26  1  0
 18 20  1  0
 20 21  1  0
 20 41  1  0
 20 42  1  0
 21 22  1  0
 21 43  1  0
 21 44  1  0
 22 23  1  0
 22 45  1  0
 22 46  1  0
 23 24  1  0
 23 25  1  0
 23 26  1  0
 26 47  1  0
 26 48  1  0
 28 29  1  0
 28 49  1  0
 29 30  1  0
 29 31  1  0
 31 32  1  0
 32 50  1  0
M  CHG  1  23   1
M  END
>  <DOCK_score>  (1) 
-41.7967

>  <SMILES>  (1) 
Cc1ccc2c(Cc3noc(-c4c[nH]nc4[C@H]4CCC[NH2+]C4)n3)c[nH]c2c1

$$$$
