Oc1cccc(-c2c[nH]c([C@H](Nc3[nH]cc(-c4ccc(F)cc4)[nH+]3)c3ccccc3)n2)c1
     RDKit          3D

 53 57  0  0  1  0  0  0  0  0999 V2000
  136.9478  138.5361  162.6299 O   0  0  0  0  0  0  0  0  0  0  0  0
  135.8110  139.1864  162.2670 C   0  0  0  0  0  0  0  0  0  0  0  0
  135.8170  140.5673  162.1237 C   0  0  0  0  0  0  0  0  0  0  0  0
  134.6632  141.2329  161.7552 C   0  0  0  0  0  0  0  0  0  0  0  0
  133.4981  140.5281  161.5269 C   0  0  0  0  0  0  0  0  0  0  0  0
  133.4838  139.1417  161.6680 C   0  0  0  0  0  0  0  0  0  0  0  0
  132.2330  138.3819  161.4233 C   0  0  0  0  0  0  0  0  0  0  0  0
  130.9676  138.8391  161.6117 C   0  0  0  0  0  0  0  0  0  0  0  0
  130.1262  137.8190  161.2660 N   0  0  0  0  0  0  0  0  0  0  0  0
  129.1568  137.8401  161.2938 H   0  0  0  0  0  0  0  0  0  0  0  0
  130.8925  136.7756  160.8792 C   0  0  0  0  0  0  0  0  0  0  0  0
  130.3788  135.4376  160.4138 C   0  0  2  0  0  0  0  0  0  0  0  0
  130.7550  134.6548  161.0725 H   0  0  0  0  0  0  0  0  0  0  0  0
  130.8383  135.1870  159.0456 N   0  0  0  0  0  0  0  0  0  0  0  0
  130.4890  134.0120  158.4022 C   0  0  0  0  0  0  0  0  0  0  0  0
  129.7223  133.0182  158.9279 N   0  0  0  0  0  0  0  0  0  0  0  0
  129.3261  133.0054  159.8133 H   0  0  0  0  0  0  0  0  0  0  0  0
  129.6138  132.0357  157.9734 C   0  0  0  0  0  0  0  0  0  0  0  0
  130.3166  132.4573  156.8932 C   0  0  0  0  0  0  0  0  0  0  0  0
  130.4819  131.7194  155.6169 C   0  0  0  0  0  0  0  0  0  0  0  0
  130.0349  132.2808  154.4221 C   0  0  0  0  0  0  0  0  0  0  0  0
  130.1960  131.5932  153.2365 C   0  0  0  0  0  0  0  0  0  0  0  0
  130.7906  130.3418  153.2343 C   0  0  0  0  0  0  0  0  0  0  0  0
  130.9418  129.6698  152.0721 F   0  0  0  0  0  0  0  0  0  0  0  0
  131.2312  129.7777  154.4204 C   0  0  0  0  0  0  0  0  0  0  0  0
  131.0795  130.4603  155.6099 C   0  0  0  0  0  0  0  0  0  0  0  0
  130.8374  133.6757  157.1842 N   0  0  0  0  0  0  0  0  0  0  0  0
  131.3828  134.2114  156.5871 H   0  0  0  0  0  0  0  0  0  0  0  0
  128.8721  135.4393  160.4454 C   0  0  0  0  0  0  0  0  0  0  0  0
  128.2043  135.0337  161.5858 C   0  0  0  0  0  0  0  0  0  0  0  0
  126.8222  135.0394  161.6164 C   0  0  0  0  0  0  0  0  0  0  0  0
  126.1080  135.4422  160.5033 C   0  0  0  0  0  0  0  0  0  0  0  0
  126.7760  135.8427  159.3612 C   0  0  0  0  0  0  0  0  0  0  0  0
  128.1579  135.8412  159.3322 C   0  0  0  0  0  0  0  0  0  0  0  0
  132.1480  137.1153  160.9681 N   0  0  0  0  0  0  0  0  0  0  0  0
  134.6455  138.4721  162.0451 C   0  0  0  0  0  0  0  0  0  0  0  0
  136.8449  137.5777  162.7077 H   0  0  0  0  0  0  0  0  0  0  0  0
  136.7258  141.1232  162.3011 H   0  0  0  0  0  0  0  0  0  0  0  0
  134.6727  142.3073  161.6458 H   0  0  0  0  0  0  0  0  0  0  0  0
  132.5982  141.0510  161.2387 H   0  0  0  0  0  0  0  0  0  0  0  0
  130.6821  139.8186  161.9660 H   0  0  0  0  0  0  0  0  0  0  0  0
  131.3873  135.8445  158.5902 H   0  0  0  0  0  0  0  0  0  0  0  0
  129.0719  131.1060  158.0657 H   0  0  0  0  0  0  0  0  0  0  0  0
  129.5672  133.2543  154.4234 H   0  0  0  0  0  0  0  0  0  0  0  0
  129.8536  132.0292  152.3097 H   0  0  0  0  0  0  0  0  0  0  0  0
  131.6938  128.8018  154.4141 H   0  0  0  0  0  0  0  0  0  0  0  0
  131.4236  130.0199  156.5340 H   0  0  0  0  0  0  0  0  0  0  0  0
  128.7623  134.7155  162.4539 H   0  0  0  0  0  0  0  0  0  0  0  0
  126.3005  134.7268  162.5087 H   0  0  0  0  0  0  0  0  0  0  0  0
  125.0283  135.4442  160.5263 H   0  0  0  0  0  0  0  0  0  0  0  0
  126.2179  136.1574  158.4917 H   0  0  0  0  0  0  0  0  0  0  0  0
  128.6796  136.1542  158.4400 H   0  0  0  0  0  0  0  0  0  0  0  0
  134.6383  137.3982  162.1601 H   0  0  0  0  0  0  0  0  0  0  0  0
  1  2  1  0
  1 37  1  0
  2 36  2  0
  2  3  1  0
  3  4  2  0
  3 38  1  0
  4  5  1  0
  4 39  1  0
  5  6  2  0
  5 40  1  0
  6  7  1  0
  6 36  1  0
  7 35  1  0
  7  8  2  0
  8  9  1  0
  8 41  1  0
  9 10  1  0
  9 11  1  0
 11 12  1  0
 11 35  2  0
 12 13  1  1
 12 14  1  0
 12 29  1  0
 14 42  1  0
 15 14  1  0
 15 27  2  0
 15 16  1  0
 16 17  1  0
 16 18  1  0
 18 19  2  0
 18 43  1  0
 19 20  1  0
 19 27  1  0
 20 26  1  0
 20 21  2  0
 21 22  1  0
 21 44  1  0
 22 23  2  0
 22 45  1  0
 23 24  1  0
 23 25  1  0
 25 26  2  0
 25 46  1  0
 26 47  1  0
 27 28  1  0
 29 34  1  0
 29 30  2  0
 30 31  1  0
 30 48  1  0
 31 32  2  0
 31 49  1  0
 32 33  1  0
 32 50  1  0
 33 34  2  0
 33 51  1  0
 34 52  1  0
 36 53  1  0
M  CHG  1  27   1
M  END
>  <DOCK_score>  (1) 
-57.158134

>  <SMILES>  (1) 
Oc1cccc(-c2c[nH]c([C@H](Nc3[nH]cc(-c4ccc(F)cc4)[nH+]3)c3ccccc3)n2)c1

$$$$
