CCc1ccc(-c2c[nH]c(N[C@@H](CNc3n[nH]cc3C3CC3)c3ccccc3)[nH+]2)cc1
     RDKit          3D

 60 64  0  0  1  0  0  0  0  0999 V2000
  130.2133  128.5592  151.6091 C   0  0  0  0  0  0  0  0  0  0  0  0
  131.3174  129.5742  151.9116 C   0  0  0  0  0  0  0  0  0  0  0  0
  130.9994  130.2946  153.1965 C   0  0  0  0  0  0  0  0  0  0  0  0
  131.4541  129.7885  154.4004 C   0  0  0  0  0  0  0  0  0  0  0  0
  131.1709  130.4469  155.5799 C   0  0  0  0  0  0  0  0  0  0  0  0
  130.4153  131.6178  155.5572 C   0  0  0  0  0  0  0  0  0  0  0  0
  130.1029  132.3269  156.8220 C   0  0  0  0  0  0  0  0  0  0  0  0
  129.4216  131.8147  157.8768 C   0  0  0  0  0  0  0  0  0  0  0  0
  129.3597  132.8028  158.8291 N   0  0  0  0  0  0  0  0  0  0  0  0
  128.9339  132.7373  159.6981 H   0  0  0  0  0  0  0  0  0  0  0  0
  130.0057  133.8909  158.3280 C   0  0  0  0  0  0  0  0  0  0  0  0
  130.1682  135.1023  158.9780 N   0  0  0  0  0  0  0  0  0  0  0  0
  129.6201  135.2911  160.3234 C   0  0  1  0  0  0  0  0  0  0  0  0
  130.0672  134.5657  161.0029 H   0  0  0  0  0  0  0  0  0  0  0  0
  129.9363  136.7072  160.8087 C   0  0  0  0  0  0  0  0  0  0  0  0
  131.2964  137.0701  160.4030 N   0  0  0  0  0  0  0  0  0  0  0  0
  132.3770  136.7912  161.2480 C   0  0  0  0  0  0  0  0  0  0  0  0
  132.3068  136.2115  162.4233 N   0  0  0  0  0  0  0  0  0  0  0  0
  133.6048  136.1153  162.9410 N   0  0  0  0  0  0  0  0  0  0  0  0
  133.8502  135.7265  163.7951 H   0  0  0  0  0  0  0  0  0  0  0  0
  134.4539  136.6616  162.0456 C   0  0  0  0  0  0  0  0  0  0  0  0
  133.7249  137.0881  160.9891 C   0  0  0  0  0  0  0  0  0  0  0  0
  134.2633  137.7627  159.7538 C   0  0  0  0  0  0  0  0  0  0  0  0
  135.1820  138.9699  159.9518 C   0  0  0  0  0  0  0  0  0  0  0  0
  133.7545  139.1708  159.4392 C   0  0  0  0  0  0  0  0  0  0  0  0
  128.1264  135.0936  160.2894 C   0  0  0  0  0  0  0  0  0  0  0  0
  127.4685  134.6043  161.4024 C   0  0  0  0  0  0  0  0  0  0  0  0
  126.0978  134.4274  161.3728 C   0  0  0  0  0  0  0  0  0  0  0  0
  125.3862  134.7311  160.2272 C   0  0  0  0  0  0  0  0  0  0  0  0
  126.0450  135.2154  159.1125 C   0  0  0  0  0  0  0  0  0  0  0  0
  127.4150  135.3965  159.1436 C   0  0  0  0  0  0  0  0  0  0  0  0
  130.4534  133.6006  157.1308 N   0  0  0  0  0  0  0  0  0  0  0  0
  130.9534  134.2014  156.5564 H   0  0  0  0  0  0  0  0  0  0  0  0
  129.9548  132.1203  154.3415 C   0  0  0  0  0  0  0  0  0  0  0  0
  130.2489  131.4567  153.1676 C   0  0  0  0  0  0  0  0  0  0  0  0
  130.1506  127.8379  152.4239 H   0  0  0  0  0  0  0  0  0  0  0  0
  129.2599  129.0778  151.5088 H   0  0  0  0  0  0  0  0  0  0  0  0
  130.4433  128.0383  150.6797 H   0  0  0  0  0  0  0  0  0  0  0  0
  132.2705  129.0562  152.0114 H   0  0  0  0  0  0  0  0  0  0  0  0
  131.3799  130.2962  151.0963 H   0  0  0  0  0  0  0  0  0  0  0  0
  132.0355  128.8785  154.4174 H   0  0  0  0  0  0  0  0  0  0  0  0
  131.5304  130.0532  156.5191 H   0  0  0  0  0  0  0  0  0  0  0  0
  129.0067  130.8206  157.9532 H   0  0  0  0  0  0  0  0  0  0  0  0
  130.6453  135.8261  158.5426 H   0  0  0  0  0  0  0  0  0  0  0  0
  129.2268  137.4087  160.3701 H   0  0  0  0  0  0  0  0  0  0  0  0
  129.8593  136.7444  161.8955 H   0  0  0  0  0  0  0  0  0  0  0  0
  131.4481  137.5038  159.5487 H   0  0  0  0  0  0  0  0  0  0  0  0
  135.5253  136.7441  162.1534 H   0  0  0  0  0  0  0  0  0  0  0  0
  134.4725  137.1032  158.9115 H   0  0  0  0  0  0  0  0  0  0  0  0
  135.3970  139.2763  160.9755 H   0  0  0  0  0  0  0  0  0  0  0  0
  135.9962  139.1050  159.2396 H   0  0  0  0  0  0  0  0  0  0  0  0
  133.6293  139.4381  158.3899 H   0  0  0  0  0  0  0  0  0  0  0  0
  133.0303  139.6094  160.1257 H   0  0  0  0  0  0  0  0  0  0  0  0
  128.0248  134.3635  162.2962 H   0  0  0  0  0  0  0  0  0  0  0  0
  125.5832  134.0493  162.2438 H   0  0  0  0  0  0  0  0  0  0  0  0
  124.3158  134.5902  160.2033 H   0  0  0  0  0  0  0  0  0  0  0  0
  125.4891  135.4527  158.2175 H   0  0  0  0  0  0  0  0  0  0  0  0
  127.9295  135.7749  158.2727 H   0  0  0  0  0  0  0  0  0  0  0  0
  129.3687  133.0272  154.3180 H   0  0  0  0  0  0  0  0  0  0  0  0
  129.8924  131.8451  152.2250 H   0  0  0  0  0  0  0  0  0  0  0  0
  1  2  1  0
  1 36  1  0
  1 37  1  0
  1 38  1  0
  2  3  1  0
  2 39  1  0
  2 40  1  0
  3 35  2  0
  3  4  1  0
  4  5  2  0
  4 41  1  0
  5  6  1  0
  5 42  1  0
  6  7  1  0
  6 34  2  0
  7 32  1  0
  7  8  2  0
  8  9  1  0
  8 43  1  0
  9 10  1  0
  9 11  1  0
 11 12  1  0
 11 32  2  0
 12 13  1  0
 12 44  1  0
 13 14  1  1
 13 15  1  0
 13 26  1  0
 15 16  1  0
 15 45  1  0
 15 46  1  0
 16 17  1  0
 16 47  1  0
 17 22  1  0
 17 18  2  0
 18 19  1  0
 19 20  1  0
 19 21  1  0
 21 22  2  0
 21 48  1  0
 22 23  1  0
 23 25  1  0
 23 24  1  0
 23 49  1  0
 24 25  1  0
 24 50  1  0
 24 51  1  0
 25 52  1  0
 25 53  1  0
 26 31  1  0
 26 27  2  0
 27 28  1  0
 27 54  1  0
 28 29  2  0
 28 55  1  0
 29 30  1  0
 29 56  1  0
 30 31  2  0
 30 57  1  0
 31 58  1  0
 32 33  1  0
 34 35  1  0
 34 59  1  0
 35 60  1  0
M  CHG  1  32   1
M  END
>  <DOCK_score>  (1) 
-70.528511

>  <SMILES>  (1) 
CCc1ccc(-c2c[nH]c(N[C@@H](CNc3n[nH]cc3C3CC3)c3ccccc3)[nH+]2)cc1

$$$$
