CCc1ccc(-c2n[nH]cc2C[NH2+]CC2=CCCCC2)cc1
     RDKit          3D

 48 50  0  0  0  0  0  0  0  0999 V2000
  135.2700  138.8489  158.7764 C   0  0  0  0  0  0  0  0  0  0  0  0
  134.4223  139.7218  159.7038 C   0  0  0  0  0  0  0  0  0  0  0  0
  133.1021  139.0434  159.9647 C   0  0  0  0  0  0  0  0  0  0  0  0
  132.9715  138.1796  161.0372 C   0  0  0  0  0  0  0  0  0  0  0  0
  131.7648  137.5554  161.2807 C   0  0  0  0  0  0  0  0  0  0  0  0
  130.6772  137.7969  160.4441 C   0  0  0  0  0  0  0  0  0  0  0  0
  129.3771  137.1286  160.7012 C   0  0  0  0  0  0  0  0  0  0  0  0
  128.2329  137.7303  160.9491 N   0  0  0  0  0  0  0  0  0  0  0  0
  127.2544  136.7453  161.1341 N   0  0  0  0  0  0  0  0  0  0  0  0
  126.3179  136.9034  161.3315 H   0  0  0  0  0  0  0  0  0  0  0  0
  127.8421  135.5374  160.9958 C   0  0  0  0  0  0  0  0  0  0  0  0
  129.1497  135.7388  160.7233 C   0  0  0  0  0  0  0  0  0  0  0  0
  130.1829  134.6669  160.4899 C   0  0  0  0  0  0  0  0  0  0  0  0
  131.0046  135.0238  159.3257 N   0  0  0  0  0  0  0  0  0  0  0  0
  130.4154  135.1063  158.5108 H   0  0  0  0  0  0  0  0  0  0  0  0
  131.4664  135.9044  159.4973 H   0  0  0  0  0  0  0  0  0  0  0  0
  132.0117  133.9788  159.0983 C   0  0  0  0  0  0  0  0  0  0  0  0
  131.3218  132.6637  158.8421 C   0  0  0  0  0  0  0  0  0  0  0  0
  131.5671  131.6823  159.6496 C   0  0  0  0  0  0  0  0  0  0  0  0
  130.9610  130.3155  159.5203 C   0  0  0  0  0  0  0  0  0  0  0  0
  129.7420  130.3633  158.5968 C   0  0  0  0  0  0  0  0  0  0  0  0
  130.1346  131.1055  157.3130 C   0  0  0  0  0  0  0  0  0  0  0  0
  130.3979  132.5717  157.6630 C   0  0  0  0  0  0  0  0  0  0  0  0
  130.8159  138.6637  159.3622 C   0  0  0  0  0  0  0  0  0  0  0  0
  132.0256  139.2866  159.1310 C   0  0  0  0  0  0  0  0  0  0  0  0
  134.7437  138.7032  157.8331 H   0  0  0  0  0  0  0  0  0  0  0  0
  136.2248  139.3398  158.5877 H   0  0  0  0  0  0  0  0  0  0  0  0
  135.4455  137.8818  159.2477 H   0  0  0  0  0  0  0  0  0  0  0  0
  134.2467  140.6888  159.2326 H   0  0  0  0  0  0  0  0  0  0  0  0
  134.9486  139.8676  160.6471 H   0  0  0  0  0  0  0  0  0  0  0  0
  133.8153  137.9931  161.6850 H   0  0  0  0  0  0  0  0  0  0  0  0
  131.6638  136.8812  162.1184 H   0  0  0  0  0  0  0  0  0  0  0  0
  127.3524  134.5791  161.0855 H   0  0  0  0  0  0  0  0  0  0  0  0
  130.8193  134.5777  161.3704 H   0  0  0  0  0  0  0  0  0  0  0  0
  129.6840  133.7155  160.3045 H   0  0  0  0  0  0  0  0  0  0  0  0
  132.6214  134.2437  158.2346 H   0  0  0  0  0  0  0  0  0  0  0  0
  132.6480  133.8898  159.9788 H   0  0  0  0  0  0  0  0  0  0  0  0
  132.2474  131.8590  160.4696 H   0  0  0  0  0  0  0  0  0  0  0  0
  130.6555  129.9588  160.5038 H   0  0  0  0  0  0  0  0  0  0  0  0
  131.7026  129.6330  159.1050 H   0  0  0  0  0  0  0  0  0  0  0  0
  128.9278  130.8927  159.0917 H   0  0  0  0  0  0  0  0  0  0  0  0
  129.4243  129.3499  158.3514 H   0  0  0  0  0  0  0  0  0  0  0  0
  129.3217  131.0419  156.5897 H   0  0  0  0  0  0  0  0  0  0  0  0
  131.0374  130.6609  156.8942 H   0  0  0  0  0  0  0  0  0  0  0  0
  129.4542  133.0608  157.9045 H   0  0  0  0  0  0  0  0  0  0  0  0
  130.8540  133.0692  156.8070 H   0  0  0  0  0  0  0  0  0  0  0  0
  129.9773  138.8506  158.7079 H   0  0  0  0  0  0  0  0  0  0  0  0
  132.1332  139.9619  158.2950 H   0  0  0  0  0  0  0  0  0  0  0  0
  1  2  1  0
  1 26  1  0
  1 27  1  0
  1 28  1  0
  2  3  1  0
  2 29  1  0
  2 30  1  0
  3 25  2  0
  3  4  1  0
  4  5  2  0
  4 31  1  0
  5  6  1  0
  5 32  1  0
  6  7  1  0
  6 24  2  0
  7 12  1  0
  7  8  2  0
  8  9  1  0
  9 10  1  0
  9 11  1  0
 11 12  2  0
 11 33  1  0
 12 13  1  0
 13 14  1  0
 13 34  1  0
 13 35  1  0
 14 15  1  0
 14 16  1  0
 14 17  1  0
 17 18  1  0
 17 36  1  0
 17 37  1  0
 18 23  1  0
 18 19  2  0
 19 20  1  0
 19 38  1  0
 20 21  1  0
 20 39  1  0
 20 40  1  0
 21 22  1  0
 21 41  1  0
 21 42  1  0
 22 23  1  0
 22 43  1  0
 22 44  1  0
 23 45  1  0
 23 46  1  0
 24 25  1  0
 24 47  1  0
 25 48  1  0
M  CHG  1  14   1
M  END
>  <DOCK_score>  (1) 
-41.414639

>  <SMILES>  (1) 
CCc1ccc(-c2n[nH]cc2C[NH2+]CC2=CCCCC2)cc1

$$$$
