O=C1CC[C@H](NC(N[C@@H]2CCc3ccccc3OC2)=[NH+]C2CC2)CN1
     RDKit          3D

 52 55  0  0  1  0  0  0  0  0999 V2000
  123.6294  133.9597  161.2666 O   0  0  0  0  0  0  0  0  0  0  0  0
  124.8237  134.0679  161.0856 C   0  0  0  0  0  0  0  0  0  0  0  0
  125.5067  133.0470  160.2212 C   0  0  0  0  0  0  0  0  0  0  0  0
  127.0177  133.0878  160.4621 C   0  0  0  0  0  0  0  0  0  0  0  0
  127.4825  134.5470  160.3835 C   0  0  2  0  0  0  0  0  0  0  0  0
  127.1345  134.9920  159.4514 H   0  0  0  0  0  0  0  0  0  0  0  0
  128.9456  134.6004  160.4374 N   0  0  0  0  0  0  0  0  0  0  0  0
  129.6786  134.5467  159.2757 C   0  0  0  0  0  0  0  0  0  0  0  0
  130.8967  135.1802  159.2015 N   0  0  0  0  0  0  0  0  0  0  0  0
  131.4133  135.9123  160.3604 C   0  0  2  0  0  0  0  0  0  0  0  0
  131.0368  135.4395  161.2675 H   0  0  0  0  0  0  0  0  0  0  0  0
  130.8928  137.3409  160.3061 C   0  0  0  0  0  0  0  0  0  0  0  0
  131.2266  138.0896  161.5967 C   0  0  0  0  0  0  0  0  0  0  0  0
  132.6443  138.6191  161.4987 C   0  0  0  0  0  0  0  0  0  0  0  0
  132.8694  139.9789  161.4265 C   0  0  0  0  0  0  0  0  0  0  0  0
  134.1675  140.4564  161.3837 C   0  0  0  0  0  0  0  0  0  0  0  0
  135.2319  139.5740  161.4125 C   0  0  0  0  0  0  0  0  0  0  0  0
  135.0051  138.2126  161.4748 C   0  0  0  0  0  0  0  0  0  0  0  0
  133.7018  137.7334  161.5092 C   0  0  0  0  0  0  0  0  0  0  0  0
  133.4746  136.3916  161.5496 O   0  0  0  0  0  0  0  0  0  0  0  0
  132.9249  135.8211  160.3573 C   0  0  0  0  0  0  0  0  0  0  0  0
  129.2191  133.8951  158.2446 N   0  0  0  0  0  0  0  0  0  0  0  0
  128.2621  133.8246  158.1026 H   0  0  0  0  0  0  0  0  0  0  0  0
  130.1478  133.2691  157.3002 C   0  0  0  0  0  0  0  0  0  0  0  0
  129.7918  133.3305  155.8134 C   0  0  0  0  0  0  0  0  0  0  0  0
  129.6746  132.0078  156.5750 C   0  0  0  0  0  0  0  0  0  0  0  0
  126.8971  135.3120  161.5712 C   0  0  0  0  0  0  0  0  0  0  0  0
  125.4602  135.0865  161.6649 N   0  0  0  0  0  0  0  0  0  0  0  0
  125.3010  133.2651  159.1733 H   0  0  0  0  0  0  0  0  0  0  0  0
  125.1280  132.0542  160.4641 H   0  0  0  0  0  0  0  0  0  0  0  0
  127.5269  132.4989  159.6993 H   0  0  0  0  0  0  0  0  0  0  0  0
  127.2430  132.6836  161.4490 H   0  0  0  0  0  0  0  0  0  0  0  0
  129.3970  134.6736  161.2928 H   0  0  0  0  0  0  0  0  0  0  0  0
  131.4139  135.1422  158.3817 H   0  0  0  0  0  0  0  0  0  0  0  0
  131.3508  137.8578  159.4628 H   0  0  0  0  0  0  0  0  0  0  0  0
  129.8113  137.3237  160.1709 H   0  0  0  0  0  0  0  0  0  0  0  0
  131.1481  137.4093  162.4448 H   0  0  0  0  0  0  0  0  0  0  0  0
  130.5341  138.9209  161.7295 H   0  0  0  0  0  0  0  0  0  0  0  0
  132.0369  140.6667  161.4038 H   0  0  0  0  0  0  0  0  0  0  0  0
  134.3497  141.5196  161.3279 H   0  0  0  0  0  0  0  0  0  0  0  0
  136.2438  139.9504  161.3868 H   0  0  0  0  0  0  0  0  0  0  0  0
  135.8371  137.5242  161.4969 H   0  0  0  0  0  0  0  0  0  0  0  0
  133.2204  134.7741  160.2923 H   0  0  0  0  0  0  0  0  0  0  0  0
  133.3144  136.3575  159.4921 H   0  0  0  0  0  0  0  0  0  0  0  0
  131.2027  133.3299  157.5681 H   0  0  0  0  0  0  0  0  0  0  0  0
  128.8665  133.8367  155.5380 H   0  0  0  0  0  0  0  0  0  0  0  0
  130.6125  133.4313  155.1032 H   0  0  0  0  0  0  0  0  0  0  0  0
  130.4181  131.2389  156.3654 H   0  0  0  0  0  0  0  0  0  0  0  0
  128.6725  131.6435  156.8008 H   0  0  0  0  0  0  0  0  0  0  0  0
  127.3759  134.9726  162.4897 H   0  0  0  0  0  0  0  0  0  0  0  0
  127.0869  136.3776  161.4422 H   0  0  0  0  0  0  0  0  0  0  0  0
  124.9338  135.7170  162.1811 H   0  0  0  0  0  0  0  0  0  0  0  0
  1  2  2  0
  2 28  1  0
  2  3  1  0
  3  4  1  0
  3 29  1  0
  3 30  1  0
  4  5  1  0
  4 31  1  0
  4 32  1  0
  5  6  1  6
  5  7  1  0
  5 27  1  0
  7 33  1  0
  8  7  1  0
  8  9  1  0
  8 22  2  0
  9 10  1  0
  9 34  1  0
 10 11  1  1
 10 21  1  0
 10 12  1  0
 12 13  1  0
 12 35  1  0
 12 36  1  0
 13 14  1  0
 13 37  1  0
 13 38  1  0
 14 19  2  0
 14 15  1  0
 15 16  2  0
 15 39  1  0
 16 17  1  0
 16 40  1  0
 17 18  2  0
 17 41  1  0
 18 19  1  0
 18 42  1  0
 19 20  1  0
 20 21  1  0
 21 43  1  0
 21 44  1  0
 22 23  1  0
 22 24  1  0
 24 26  1  0
 24 25  1  0
 24 45  1  0
 25 26  1  0
 25 46  1  0
 25 47  1  0
 26 48  1  0
 26 49  1  0
 27 28  1  0
 27 50  1  0
 27 51  1  0
 28 52  1  0
M  CHG  1  22   1
M  END
>  <DOCK_score>  (1) 
-45.494579

>  <SMILES>  (1) 
O=C1CC[C@H](NC(N[C@@H]2CCc3ccccc3OC2)=[NH+]C2CC2)CN1

$$$$
