Cc1cccc([C@@H](Nc2[nH]cc(-c3ccc(Br)cc3)[nH+]2)c2ccc3c(c2C)CCC3)c1
     RDKit          3D

 58 62  0  0  1  0  0  0  0  0999 V2000
  125.9147  134.7234  162.8567 C   0  0  0  0  0  0  0  0  0  0  0  0
  126.6509  135.1583  161.6158 C   0  0  0  0  0  0  0  0  0  0  0  0
  125.9440  135.5286  160.4869 C   0  0  0  0  0  0  0  0  0  0  0  0
  126.6190  135.9272  159.3486 C   0  0  0  0  0  0  0  0  0  0  0  0
  128.0013  135.9556  159.3389 C   0  0  0  0  0  0  0  0  0  0  0  0
  128.7080  135.5854  160.4676 C   0  0  0  0  0  0  0  0  0  0  0  0
  130.2147  135.6160  160.4570 C   0  0  1  0  0  0  0  0  0  0  0  0
  130.5984  134.8512  161.1322 H   0  0  0  0  0  0  0  0  0  0  0  0
  130.6988  135.3559  159.0990 N   0  0  0  0  0  0  0  0  0  0  0  0
  130.3840  134.1644  158.4682 C   0  0  0  0  0  0  0  0  0  0  0  0
  129.6315  133.1618  158.9979 N   0  0  0  0  0  0  0  0  0  0  0  0
  129.2231  133.1533  159.8777 H   0  0  0  0  0  0  0  0  0  0  0  0
  129.5575  132.1637  158.0567 C   0  0  0  0  0  0  0  0  0  0  0  0
  130.2662  132.5848  156.9800 C   0  0  0  0  0  0  0  0  0  0  0  0
  130.4656  131.8323  155.7175 C   0  0  0  0  0  0  0  0  0  0  0  0
  130.0235  132.3657  154.5080 C   0  0  0  0  0  0  0  0  0  0  0  0
  130.2166  131.6639  153.3356 C   0  0  0  0  0  0  0  0  0  0  0  0
  130.8374  130.4273  153.3606 C   0  0  0  0  0  0  0  0  0  0  0  0
  131.0910  129.4678  151.7510 Br  0  0  0  0  0  0  0  0  0  0  0  0
  131.2738  129.8905  154.5598 C   0  0  0  0  0  0  0  0  0  0  0  0
  131.0906  130.5866  155.7372 C   0  0  0  0  0  0  0  0  0  0  0  0
  130.7568  133.8184  157.2602 N   0  0  0  0  0  0  0  0  0  0  0  0
  131.2989  134.3572  156.6629 H   0  0  0  0  0  0  0  0  0  0  0  0
  130.6928  136.9715  160.9098 C   0  0  0  0  0  0  0  0  0  0  0  0
  129.7772  137.9487  161.2538 C   0  0  0  0  0  0  0  0  0  0  0  0
  130.2178  139.1882  161.6744 C   0  0  0  0  0  0  0  0  0  0  0  0
  131.5741  139.4599  161.7418 C   0  0  0  0  0  0  0  0  0  0  0  0
  132.4893  138.4847  161.3923 C   0  0  0  0  0  0  0  0  0  0  0  0
  132.0457  137.2406  160.9762 C   0  0  0  0  0  0  0  0  0  0  0  0
  133.0427  136.1767  160.5949 C   0  0  0  0  0  0  0  0  0  0  0  0
  133.8954  139.0230  161.5489 C   0  0  0  0  0  0  0  0  0  0  0  0
  133.7363  140.5571  161.6094 C   0  0  0  0  0  0  0  0  0  0  0  0
  132.3026  140.7200  162.1573 C   0  0  0  0  0  0  0  0  0  0  0  0
  128.0328  135.1818  161.6046 C   0  0  0  0  0  0  0  0  0  0  0  0
  125.7554  133.6455  162.8255 H   0  0  0  0  0  0  0  0  0  0  0  0
  126.5047  134.9780  163.7372 H   0  0  0  0  0  0  0  0  0  0  0  0
  124.9518  135.2318  162.9051 H   0  0  0  0  0  0  0  0  0  0  0  0
  124.8642  135.5062  160.4942 H   0  0  0  0  0  0  0  0  0  0  0  0
  126.0668  136.2161  158.4665 H   0  0  0  0  0  0  0  0  0  0  0  0
  128.5289  136.2666  158.4494 H   0  0  0  0  0  0  0  0  0  0  0  0
  131.2399  136.0185  158.6417 H   0  0  0  0  0  0  0  0  0  0  0  0
  129.0354  131.2235  158.1556 H   0  0  0  0  0  0  0  0  0  0  0  0
  129.5347  133.3285  154.4880 H   0  0  0  0  0  0  0  0  0  0  0  0
  129.8780  132.0782  152.3974 H   0  0  0  0  0  0  0  0  0  0  0  0
  131.7580  128.9253  154.5740 H   0  0  0  0  0  0  0  0  0  0  0  0
  131.4315  130.1670  156.6722 H   0  0  0  0  0  0  0  0  0  0  0  0
  128.7188  137.7414  161.1983 H   0  0  0  0  0  0  0  0  0  0  0  0
  129.5022  139.9496  161.9473 H   0  0  0  0  0  0  0  0  0  0  0  0
  133.2901  136.2726  159.5378 H   0  0  0  0  0  0  0  0  0  0  0  0
  133.9469  136.2955  161.1920 H   0  0  0  0  0  0  0  0  0  0  0  0
  132.6122  135.1924  160.7794 H   0  0  0  0  0  0  0  0  0  0  0  0
  134.3416  138.6524  162.4717 H   0  0  0  0  0  0  0  0  0  0  0  0
  134.5064  138.7395  160.6920 H   0  0  0  0  0  0  0  0  0  0  0  0
  133.8234  140.9951  160.6151 H   0  0  0  0  0  0  0  0  0  0  0  0
  134.4639  140.9985  162.2905 H   0  0  0  0  0  0  0  0  0  0  0  0
  131.8263  141.5954  161.7157 H   0  0  0  0  0  0  0  0  0  0  0  0
  132.3204  140.8058  163.2438 H   0  0  0  0  0  0  0  0  0  0  0  0
  128.5850  134.8882  162.4849 H   0  0  0  0  0  0  0  0  0  0  0  0
  1  2  1  0
  1 35  1  0
  1 36  1  0
  1 37  1  0
  2 34  2  0
  2  3  1  0
  3  4  2  0
  3 38  1  0
  4  5  1  0
  4 39  1  0
  5  6  2  0
  5 40  1  0
  6  7  1  0
  6 34  1  0
  7  8  1  1
  7  9  1  0
  7 24  1  0
  9 41  1  0
 10  9  1  0
 10 22  2  0
 10 11  1  0
 11 12  1  0
 11 13  1  0
 13 14  2  0
 13 42  1  0
 14 15  1  0
 14 22  1  0
 15 21  1  0
 15 16  2  0
 16 17  1  0
 16 43  1  0
 17 18  2  0
 17 44  1  0
 18 19  1  0
 18 20  1  0
 20 21  2  0
 20 45  1  0
 21 46  1  0
 22 23  1  0
 24 29  1  0
 24 25  2  0
 25 26  1  0
 25 47  1  0
 26 27  2  0
 26 48  1  0
 27 33  1  0
 27 28  1  0
 28 29  2  0
 28 31  1  0
 29 30  1  0
 30 49  1  0
 30 50  1  0
 30 51  1  0
 31 32  1  0
 31 52  1  0
 31 53  1  0
 32 33  1  0
 32 54  1  0
 32 55  1  0
 33 56  1  0
 33 57  1  0
 34 58  1  0
M  CHG  1  22   1
M  END
>  <DOCK_score>  (1) 
-62.697601

>  <SMILES>  (1) 
Cc1cccc([C@@H](Nc2[nH]cc(-c3ccc(Br)cc3)[nH+]2)c2ccc3c(c2C)CCC3)c1

$$$$
