O=C1CCC(NC(NC2CC2)=[NH+][C@H]2COc3cc(O)ccc3C2)CN1
     RDKit          3D

 50 53  0  0  1  0  0  0  0  0999 V2000
  123.6631  133.6308  161.5013 O   0  0  0  0  0  0  0  0  0  0  0  0
  124.8242  133.8688  161.2437 C   0  0  0  0  0  0  0  0  0  0  0  0
  125.6595  132.7714  160.6493 C   0  0  0  0  0  0  0  0  0  0  0  0
  127.1452  133.1065  160.8031 C   0  0  0  0  0  0  0  0  0  0  0  0
  127.3703  134.5445  160.3205 C   0  0  2  0  0  0  0  0  0  0  0  0
  128.8055  134.8369  160.2893 N   0  0  0  0  0  0  0  0  0  0  0  0
  129.5331  134.5881  159.1496 C   0  0  0  0  0  0  0  0  0  0  0  0
  128.9139  134.0648  158.0393 N   0  0  0  0  0  0  0  0  0  0  0  0
  129.6889  133.7996  156.8249 C   0  0  0  0  0  0  0  0  0  0  0  0
  129.5700  132.4078  156.2006 C   0  0  0  0  0  0  0  0  0  0  0  0
  130.8529  132.8122  156.9312 C   0  0  0  0  0  0  0  0  0  0  0  0
  130.8100  134.8482  159.1219 N   0  0  0  0  0  0  0  0  0  0  0  0
  131.2363  135.0975  158.2870 H   0  0  0  0  0  0  0  0  0  0  0  0
  131.6015  134.7638  160.3518 C   0  0  1  0  0  0  0  0  0  0  0  0
  130.9590  134.4720  161.1827 H   0  0  0  0  0  0  0  0  0  0  0  0
  132.7213  133.7303  160.1762 C   0  0  0  0  0  0  0  0  0  0  0  0
  133.4092  133.5959  161.4204 O   0  0  0  0  0  0  0  0  0  0  0  0
  133.8088  134.7306  162.0517 C   0  0  0  0  0  0  0  0  0  0  0  0
  134.7698  134.6290  163.0517 C   0  0  0  0  0  0  0  0  0  0  0  0
  135.1964  135.7613  163.7245 C   0  0  0  0  0  0  0  0  0  0  0  0
  136.1358  135.6599  164.7012 O   0  0  0  0  0  0  0  0  0  0  0  0
  134.6628  137.0004  163.3986 C   0  0  0  0  0  0  0  0  0  0  0  0
  133.7104  137.1001  162.4048 C   0  0  0  0  0  0  0  0  0  0  0  0
  133.2817  135.9691  161.7287 C   0  0  0  0  0  0  0  0  0  0  0  0
  132.2420  136.1223  160.6473 C   0  0  0  0  0  0  0  0  0  0  0  0
  126.6726  135.5008  161.2886 C   0  0  0  0  0  0  0  0  0  0  0  0
  125.2906  135.0908  161.5035 N   0  0  0  0  0  0  0  0  0  0  0  0
  125.4197  132.6665  159.5912 H   0  0  0  0  0  0  0  0  0  0  0  0
  125.4443  131.8350  161.1640 H   0  0  0  0  0  0  0  0  0  0  0  0
  127.7404  132.4198  160.2011 H   0  0  0  0  0  0  0  0  0  0  0  0
  127.4346  133.0214  161.8506 H   0  0  0  0  0  0  0  0  0  0  0  0
  126.9508  134.6649  159.3217 H   0  0  0  0  0  0  0  0  0  0  0  0
  129.2423  135.2061  161.0727 H   0  0  0  0  0  0  0  0  0  0  0  0
  127.9635  133.8713  158.0601 H   0  0  0  0  0  0  0  0  0  0  0  0
  129.8074  134.6461  156.1484 H   0  0  0  0  0  0  0  0  0  0  0  0
  128.9149  131.6895  156.6936 H   0  0  0  0  0  0  0  0  0  0  0  0
  129.6105  132.3386  155.1136 H   0  0  0  0  0  0  0  0  0  0  0  0
  131.7368  133.0090  156.3245 H   0  0  0  0  0  0  0  0  0  0  0  0
  131.0420  132.3600  157.9048 H   0  0  0  0  0  0  0  0  0  0  0  0
  132.2931  132.7704  159.8872 H   0  0  0  0  0  0  0  0  0  0  0  0
  133.4164  134.0689  159.4080 H   0  0  0  0  0  0  0  0  0  0  0  0
  135.1844  133.6642  163.3040 H   0  0  0  0  0  0  0  0  0  0  0  0
  136.3686  136.5035  165.1122 H   0  0  0  0  0  0  0  0  0  0  0  0
  134.9922  137.8856  163.9223 H   0  0  0  0  0  0  0  0  0  0  0  0
  133.2970  138.0654  162.1523 H   0  0  0  0  0  0  0  0  0  0  0  0
  132.7136  136.5054  159.7424 H   0  0  0  0  0  0  0  0  0  0  0  0
  131.4740  136.8211  160.9790 H   0  0  0  0  0  0  0  0  0  0  0  0
  126.6891  136.5086  160.8739 H   0  0  0  0  0  0  0  0  0  0  0  0
  127.2016  135.4979  162.2416 H   0  0  0  0  0  0  0  0  0  0  0  0
  124.6723  135.7467  161.8615 H   0  0  0  0  0  0  0  0  0  0  0  0
  1  2  2  0
  2 27  1  0
  2  3  1  0
  3  4  1  0
  3 28  1  0
  3 29  1  0
  4  5  1  0
  4 30  1  0
  4 31  1  0
  5  6  1  0
  5 26  1  0
  5 32  1  6
  6 33  1  0
  7  6  1  0
  7  8  1  0
  7 12  2  0
  8  9  1  0
  8 34  1  0
  9 11  1  0
  9 10  1  0
  9 35  1  0
 10 11  1  0
 10 36  1  0
 10 37  1  0
 11 38  1  0
 11 39  1  0
 12 13  1  0
 12 14  1  0
 14 15  1  1
 14 25  1  0
 14 16  1  0
 16 17  1  0
 16 40  1  0
 16 41  1  0
 17 18  1  0
 18 24  2  0
 18 19  1  0
 19 20  2  0
 19 42  1  0
 20 21  1  0
 20 22  1  0
 21 43  1  0
 22 23  2  0
 22 44  1  0
 23 24  1  0
 23 45  1  0
 24 25  1  0
 25 46  1  0
 25 47  1  0
 26 27  1  0
 26 48  1  0
 26 49  1  0
 27 50  1  0
M  CHG  1  12   1
M  END
>  <DOCK_score>  (1) 
-47.593189

>  <SMILES>  (1) 
O=C1CCC(NC(NC2CC2)=[NH+][C@H]2COc3cc(O)ccc3C2)CN1

$$$$
