Cc1ccc2c(c1)C[C@@H]([NH+]=C(NC(C)C)N[C@H]1CCC(=O)NC1)CO2
     RDKit          3D

 54 56  0  0  1  0  0  0  0  0999 V2000
  133.5331  138.1803  164.7785 C   0  0  0  0  0  0  0  0  0  0  0  0
  133.6568  137.0090  163.8386 C   0  0  0  0  0  0  0  0  0  0  0  0
  134.6743  136.0882  164.0111 C   0  0  0  0  0  0  0  0  0  0  0  0
  134.7887  135.0181  163.1479 C   0  0  0  0  0  0  0  0  0  0  0  0
  133.8804  134.8588  162.1059 C   0  0  0  0  0  0  0  0  0  0  0  0
  132.8628  135.7809  161.9364 C   0  0  0  0  0  0  0  0  0  0  0  0
  132.7514  136.8519  162.8076 C   0  0  0  0  0  0  0  0  0  0  0  0
  131.8652  135.6525  160.8133 C   0  0  0  0  0  0  0  0  0  0  0  0
  131.8877  134.2239  160.2643 C   0  0  1  0  0  0  0  0  0  0  0  0
  131.4357  133.5448  160.9871 H   0  0  0  0  0  0  0  0  0  0  0  0
  131.1447  134.1680  159.0028 N   0  0  0  0  0  0  0  0  0  0  0  0
  131.6036  134.3230  158.1624 H   0  0  0  0  0  0  0  0  0  0  0  0
  129.8671  133.9100  159.0098 C   0  0  0  0  0  0  0  0  0  0  0  0
  129.2904  133.2643  157.9419 N   0  0  0  0  0  0  0  0  0  0  0  0
  130.0750  132.3140  157.1497 C   0  0  0  0  0  0  0  0  0  0  0  0
  130.5601  131.1768  158.0511 C   0  0  0  0  0  0  0  0  0  0  0  0
  129.2034  131.7411  156.0303 C   0  0  0  0  0  0  0  0  0  0  0  0
  129.0962  134.2837  160.0850 N   0  0  0  0  0  0  0  0  0  0  0  0
  127.6603  133.9939  160.0929 C   0  0  1  0  0  0  0  0  0  0  0  0
  127.2817  133.9935  159.0707 H   0  0  0  0  0  0  0  0  0  0  0  0
  127.4158  132.6218  160.7326 C   0  0  0  0  0  0  0  0  0  0  0  0
  125.9365  132.2670  160.5667 C   0  0  0  0  0  0  0  0  0  0  0  0
  125.0797  133.4247  160.9922 C   0  0  0  0  0  0  0  0  0  0  0  0
  123.9093  133.2152  161.2311 O   0  0  0  0  0  0  0  0  0  0  0  0
  125.5369  134.6708  161.1207 N   0  0  0  0  0  0  0  0  0  0  0  0
  126.9266  135.0572  160.9113 C   0  0  0  0  0  0  0  0  0  0  0  0
  133.3486  133.8234  160.0219 C   0  0  0  0  0  0  0  0  0  0  0  0
  134.0206  133.7880  161.2817 O   0  0  0  0  0  0  0  0  0  0  0  0
  132.8988  137.9047  165.6210 H   0  0  0  0  0  0  0  0  0  0  0  0
  134.5215  138.4591  165.1437 H   0  0  0  0  0  0  0  0  0  0  0  0
  133.0894  139.0245  164.2505 H   0  0  0  0  0  0  0  0  0  0  0  0
  135.3811  136.2091  164.8186 H   0  0  0  0  0  0  0  0  0  0  0  0
  135.5861  134.3019  163.2809 H   0  0  0  0  0  0  0  0  0  0  0  0
  131.9553  137.5701  162.6774 H   0  0  0  0  0  0  0  0  0  0  0  0
  130.8670  135.8818  161.1867 H   0  0  0  0  0  0  0  0  0  0  0  0
  132.1231  136.3510  160.0174 H   0  0  0  0  0  0  0  0  0  0  0  0
  128.3640  133.4379  157.7129 H   0  0  0  0  0  0  0  0  0  0  0  0
  130.9343  132.8252  156.7156 H   0  0  0  0  0  0  0  0  0  0  0  0
  131.1084  131.5921  158.8967 H   0  0  0  0  0  0  0  0  0  0  0  0
  129.7025  130.6117  158.4163 H   0  0  0  0  0  0  0  0  0  0  0  0
  131.2149  130.5165  157.4825 H   0  0  0  0  0  0  0  0  0  0  0  0
  128.8578  132.5513  155.3882 H   0  0  0  0  0  0  0  0  0  0  0  0
  129.7873  131.0341  155.4409 H   0  0  0  0  0  0  0  0  0  0  0  0
  128.3441  131.2299  156.4644 H   0  0  0  0  0  0  0  0  0  0  0  0
  129.5032  134.7393  160.8385 H   0  0  0  0  0  0  0  0  0  0  0  0
  128.0329  131.8714  160.2385 H   0  0  0  0  0  0  0  0  0  0  0  0
  127.6645  132.6618  161.7931 H   0  0  0  0  0  0  0  0  0  0  0  0
  125.7009  131.3975  161.1803 H   0  0  0  0  0  0  0  0  0  0  0  0
  125.7377  132.0348  159.5204 H   0  0  0  0  0  0  0  0  0  0  0  0
  124.9050  135.3635  161.3690 H   0  0  0  0  0  0  0  0  0  0  0  0
  127.4185  135.1711  161.8772 H   0  0  0  0  0  0  0  0  0  0  0  0
  126.9599  136.0079  160.3790 H   0  0  0  0  0  0  0  0  0  0  0  0
  133.8269  134.5553  159.3711 H   0  0  0  0  0  0  0  0  0  0  0  0
  133.3869  132.8380  159.5576 H   0  0  0  0  0  0  0  0  0  0  0  0
  1  2  1  0
  1 29  1  0
  1 30  1  0
  1 31  1  0
  2  7  2  0
  2  3  1  0
  3  4  2  0
  3 32  1  0
  4  5  1  0
  4 33  1  0
  5 28  1  0
  5  6  2  0
  6  7  1  0
  6  8  1  0
  7 34  1  0
  8  9  1  0
  8 35  1  0
  8 36  1  0
  9 10  1  1
  9 11  1  0
  9 27  1  0
 11 12  1  0
 13 11  2  0
 13 14  1  0
 13 18  1  0
 14 15  1  0
 14 37  1  0
 15 16  1  0
 15 17  1  0
 15 38  1  0
 16 39  1  0
 16 40  1  0
 16 41  1  0
 17 42  1  0
 17 43  1  0
 17 44  1  0
 18 19  1  0
 18 45  1  0
 19 20  1  6
 19 26  1  0
 19 21  1  0
 21 22  1  0
 21 46  1  0
 21 47  1  0
 22 23  1  0
 22 48  1  0
 22 49  1  0
 23 24  2  0
 23 25  1  0
 25 26  1  0
 25 50  1  0
 26 51  1  0
 26 52  1  0
 27 28  1  0
 27 53  1  0
 27 54  1  0
M  CHG  1  11   1
M  END
>  <DOCK_score>  (1) 
-41.283165

>  <SMILES>  (1) 
Cc1ccc2c(c1)C[C@@H]([NH+]=C(NC(C)C)N[C@H]1CCC(=O)NC1)CO2

$$$$
