C=CCC[C@@H](C)c1c[nH]c(Nc2ccc(N)cc2)[nH+]1
     RDKit          3D

 40 41  0  0  1  0  0  0  0  0999 V2000
  129.7950  129.7268  152.2029 C   0  0  0  0  0  0  0  0  0  0  0  0
  129.8298  130.8830  152.8180 C   0  0  0  0  0  0  0  0  0  0  0  0
  131.1440  131.4407  153.3004 C   0  0  0  0  0  0  0  0  0  0  0  0
  130.9074  132.3015  154.5429 C   0  0  0  0  0  0  0  0  0  0  0  0
  130.2815  131.4450  155.6453 C   0  0  1  0  0  0  0  0  0  0  0  0
  129.3308  131.0416  155.2965 H   0  0  0  0  0  0  0  0  0  0  0  0
  131.2265  130.2937  155.9950 C   0  0  0  0  0  0  0  0  0  0  0  0
  130.0485  132.2930  156.8690 C   0  0  0  0  0  0  0  0  0  0  0  0
  129.5136  131.8722  158.0280 C   0  0  0  0  0  0  0  0  0  0  0  0
  129.4813  132.9581  158.8728 N   0  0  0  0  0  0  0  0  0  0  0  0
  129.1493  132.9704  159.7842 H   0  0  0  0  0  0  0  0  0  0  0  0
  130.0039  134.0111  158.1877 C   0  0  0  0  0  0  0  0  0  0  0  0
  130.1554  135.2995  158.6742 N   0  0  0  0  0  0  0  0  0  0  0  0
  129.2643  135.7949  159.6343 C   0  0  0  0  0  0  0  0  0  0  0  0
  129.6915  136.7437  160.5540 C   0  0  0  0  0  0  0  0  0  0  0  0
  128.8143  137.2286  161.5036 C   0  0  0  0  0  0  0  0  0  0  0  0
  127.5019  136.7755  161.5324 C   0  0  0  0  0  0  0  0  0  0  0  0
  126.6113  137.2709  162.4915 N   0  0  0  0  0  0  0  0  0  0  0  0
  127.0731  135.8309  160.6090 C   0  0  0  0  0  0  0  0  0  0  0  0
  127.9518  135.3421  159.6626 C   0  0  0  0  0  0  0  0  0  0  0  0
  130.3347  133.6005  156.9861 N   0  0  0  0  0  0  0  0  0  0  0  0
  130.7265  134.1535  156.2922 H   0  0  0  0  0  0  0  0  0  0  0  0
  128.8532  129.3272  151.8572 H   0  0  0  0  0  0  0  0  0  0  0  0
  130.7083  129.1734  152.0415 H   0  0  0  0  0  0  0  0  0  0  0  0
  128.9165  131.4364  152.9794 H   0  0  0  0  0  0  0  0  0  0  0  0
  131.5899  132.0509  152.5150 H   0  0  0  0  0  0  0  0  0  0  0  0
  131.8172  130.6205  153.5495 H   0  0  0  0  0  0  0  0  0  0  0  0
  130.2342  133.1218  154.2937 H   0  0  0  0  0  0  0  0  0  0  0  0
  131.8580  132.7050  154.8918 H   0  0  0  0  0  0  0  0  0  0  0  0
  131.3950  129.6803  155.1099 H   0  0  0  0  0  0  0  0  0  0  0  0
  132.1771  130.6971  156.3440 H   0  0  0  0  0  0  0  0  0  0  0  0
  130.7806  129.6835  156.7804 H   0  0  0  0  0  0  0  0  0  0  0  0
  129.1741  130.8719  158.2536 H   0  0  0  0  0  0  0  0  0  0  0  0
  130.8788  135.8585  158.3498 H   0  0  0  0  0  0  0  0  0  0  0  0
  130.7111  137.0992  160.5292 H   0  0  0  0  0  0  0  0  0  0  0  0
  129.1476  137.9638  162.2213 H   0  0  0  0  0  0  0  0  0  0  0  0
  126.9107  137.9309  163.1363 H   0  0  0  0  0  0  0  0  0  0  0  0
  125.6945  136.9544  162.5116 H   0  0  0  0  0  0  0  0  0  0  0  0
  126.0523  135.4790  160.6308 H   0  0  0  0  0  0  0  0  0  0  0  0
  127.6182  134.6077  158.9443 H   0  0  0  0  0  0  0  0  0  0  0  0
  1  2  2  0
  1 23  1  0
  1 24  1  0
  2  3  1  0
  2 25  1  0
  3  4  1  0
  3 26  1  0
  3 27  1  0
  4  5  1  0
  4 28  1  0
  4 29  1  0
  5  6  1  6
  5  7  1  0
  5  8  1  0
  7 30  1  0
  7 31  1  0
  7 32  1  0
  8 21  1  0
  8  9  2  0
  9 10  1  0
  9 33  1  0
 10 11  1  0
 10 12  1  0
 12 13  1  0
 12 21  2  0
 13 14  1  0
 13 34  1  0
 14 20  1  0
 14 15  2  0
 15 16  1  0
 15 35  1  0
 16 17  2  0
 16 36  1  0
 17 18  1  0
 17 19  1  0
 18 37  1  0
 18 38  1  0
 19 20  2  0
 19 39  1  0
 20 40  1  0
 21 22  1  0
M  CHG  1  21   1
M  END
>  <DOCK_score>  (1) 
-48.79937

>  <SMILES>  (1) 
C=CCC[C@@H](C)c1c[nH]c(Nc2ccc(N)cc2)[nH+]1

$$$$
