CCc1ccc(-c2c[nH]c(N[C@@H](CCC#C[C@H]3C[C@H]3O)c3ccccc3)[nH+]2)cc1
     RDKit          3D

 57 60  0  0  1  0  0  0  0  0999 V2000
  130.6191  128.3080  151.7417 C   0  0  0  0  0  0  0  0  0  0  0  0
  131.6920  129.3444  152.0820 C   0  0  0  0  0  0  0  0  0  0  0  0
  131.2862  130.0990  153.3218 C   0  0  0  0  0  0  0  0  0  0  0  0
  131.6681  129.6337  154.5673 C   0  0  0  0  0  0  0  0  0  0  0  0
  131.3042  130.3237  155.7059 C   0  0  0  0  0  0  0  0  0  0  0  0
  130.5408  131.4850  155.5996 C   0  0  0  0  0  0  0  0  0  0  0  0
  130.1419  132.2279  156.8199 C   0  0  0  0  0  0  0  0  0  0  0  0
  129.3994  131.7399  157.8444 C   0  0  0  0  0  0  0  0  0  0  0  0
  129.2679  132.7552  158.7603 N   0  0  0  0  0  0  0  0  0  0  0  0
  128.7886  132.7108  159.6024 H   0  0  0  0  0  0  0  0  0  0  0  0
  129.9345  133.8349  158.2683 C   0  0  0  0  0  0  0  0  0  0  0  0
  130.0441  135.0669  158.8900 N   0  0  0  0  0  0  0  0  0  0  0  0
  128.9732  135.5412  159.7701 C   0  0  1  0  0  0  0  0  0  0  0  0
  128.8438  134.8406  160.5950 H   0  0  0  0  0  0  0  0  0  0  0  0
  129.3410  136.9191  160.3242 C   0  0  0  0  0  0  0  0  0  0  0  0
  128.5192  137.1981  161.5842 C   0  0  0  0  0  0  0  0  0  0  0  0
  128.8730  138.5238  162.1173 C   0  0  0  0  0  0  0  0  0  0  0  0
  129.1553  139.5811  162.5423 C   0  0  0  0  0  0  0  0  0  0  0  0
  129.5090  140.9068  163.0753 C   0  0  1  0  0  0  0  0  0  0  0  0
  129.7562  141.6626  162.3298 H   0  0  0  0  0  0  0  0  0  0  0  0
  128.7904  141.3734  164.3429 C   0  0  0  0  0  0  0  0  0  0  0  0
  130.2608  140.9552  164.4070 C   0  0  1  0  0  0  0  0  0  0  0  0
  131.0028  141.7428  164.5380 H   0  0  0  0  0  0  0  0  0  0  0  0
  130.5655  139.7098  165.0383 O   0  0  0  0  0  0  0  0  0  0  0  0
  127.6882  135.6406  158.9891 C   0  0  0  0  0  0  0  0  0  0  0  0
  126.4761  135.4466  159.6250 C   0  0  0  0  0  0  0  0  0  0  0  0
  125.2971  135.5422  158.9094 C   0  0  0  0  0  0  0  0  0  0  0  0
  125.3307  135.8226  157.5562 C   0  0  0  0  0  0  0  0  0  0  0  0
  126.5430  136.0112  156.9193 C   0  0  0  0  0  0  0  0  0  0  0  0
  127.7218  135.9200  157.6358 C   0  0  0  0  0  0  0  0  0  0  0  0
  130.4603  133.5142  157.1113 N   0  0  0  0  0  0  0  0  0  0  0  0
  130.9903  134.1031  156.5518 H   0  0  0  0  0  0  0  0  0  0  0  0
  130.1541  131.9459  154.3423 C   0  0  0  0  0  0  0  0  0  0  0  0
  130.5286  131.2509  153.2103 C   0  0  0  0  0  0  0  0  0  0  0  0
  130.9126  127.7622  150.8450 H   0  0  0  0  0  0  0  0  0  0  0  0
  130.5112  127.6106  152.5724 H   0  0  0  0  0  0  0  0  0  0  0  0
  129.6693  128.8127  151.5654 H   0  0  0  0  0  0  0  0  0  0  0  0
  132.6418  128.8396  152.2584 H   0  0  0  0  0  0  0  0  0  0  0  0
  131.7999  130.0418  151.2513 H   0  0  0  0  0  0  0  0  0  0  0  0
  132.2555  128.7312  154.6488 H   0  0  0  0  0  0  0  0  0  0  0  0
  131.6067  129.9623  156.6776 H   0  0  0  0  0  0  0  0  0  0  0  0
  128.9897  130.7439  157.9246 H   0  0  0  0  0  0  0  0  0  0  0  0
  130.8300  135.6161  158.7431 H   0  0  0  0  0  0  0  0  0  0  0  0
  130.4025  136.9402  160.5705 H   0  0  0  0  0  0  0  0  0  0  0  0
  129.1268  137.6811  159.5746 H   0  0  0  0  0  0  0  0  0  0  0  0
  127.4577  137.1771  161.3378 H   0  0  0  0  0  0  0  0  0  0  0  0
  128.7334  136.4362  162.3336 H   0  0  0  0  0  0  0  0  0  0  0  0
  128.5651  142.4362  164.4316 H   0  0  0  0  0  0  0  0  0  0  0  0
  128.0553  140.6988  164.7820 H   0  0  0  0  0  0  0  0  0  0  0  0
  131.1199  139.1240  164.5050 H   0  0  0  0  0  0  0  0  0  0  0  0
  126.4500  135.2240  160.6814 H   0  0  0  0  0  0  0  0  0  0  0  0
  124.3500  135.3951  159.4072 H   0  0  0  0  0  0  0  0  0  0  0  0
  124.4097  135.8945  156.9968 H   0  0  0  0  0  0  0  0  0  0  0  0
  126.5693  136.2302  155.8621 H   0  0  0  0  0  0  0  0  0  0  0  0
  128.6688  136.0674  157.1382 H   0  0  0  0  0  0  0  0  0  0  0  0
  129.5624  132.8451  154.2541 H   0  0  0  0  0  0  0  0  0  0  0  0
  130.2299  131.6074  152.2356 H   0  0  0  0  0  0  0  0  0  0  0  0
  1  2  1  0
  1 35  1  0
  1 36  1  0
  1 37  1  0
  2  3  1  0
  2 38  1  0
  2 39  1  0
  3 34  2  0
  3  4  1  0
  4  5  2  0
  4 40  1  0
  5  6  1  0
  5 41  1  0
  6  7  1  0
  6 33  2  0
  7 31  1  0
  7  8  2  0
  8  9  1  0
  8 42  1  0
  9 10  1  0
  9 11  1  0
 11 12  1  0
 11 31  2  0
 12 13  1  0
 12 43  1  0
 13 14  1  1
 13 15  1  0
 13 25  1  0
 15 16  1  0
 15 44  1  0
 15 45  1  0
 16 17  1  0
 16 46  1  0
 16 47  1  0
 17 18  3  0
 18 19  1  0
 19 20  1  6
 19 22  1  0
 19 21  1  0
 21 22  1  0
 21 48  1  0
 21 49  1  0
 22 23  1  6
 22 24  1  0
 24 50  1  0
 25 30  1  0
 25 26  2  0
 26 27  1  0
 26 51  1  0
 27 28  2  0
 27 52  1  0
 28 29  1  0
 28 53  1  0
 29 30  2  0
 29 54  1  0
 30 55  1  0
 31 32  1  0
 33 34  1  0
 33 56  1  0
 34 57  1  0
M  CHG  1  31   1
M  END
>  <DOCK_score>  (1) 
-61.152897

>  <SMILES>  (1) 
CCc1ccc(-c2c[nH]c(N[C@@H](CCC#C[C@H]3C[C@H]3O)c3ccccc3)[nH+]2)cc1

$$$$
