CCc1ccc(-c2c[nH]c(N[C@@H](C3=C(N)CCCC3)c3ccnn3C)[nH+]2)cc1
     RDKit          3D

 57 60  0  0  1  0  0  0  0  0999 V2000
  132.3123  129.6683  152.4835 C   0  0  0  0  0  0  0  0  0  0  0  0
  130.8895  129.6255  153.0445 C   0  0  0  0  0  0  0  0  0  0  0  0
  130.8208  130.4505  154.3035 C   0  0  0  0  0  0  0  0  0  0  0  0
  130.5043  131.7951  154.2298 C   0  0  0  0  0  0  0  0  0  0  0  0
  130.4344  132.5544  155.3802 C   0  0  0  0  0  0  0  0  0  0  0  0
  130.6949  131.9665  156.6168 C   0  0  0  0  0  0  0  0  0  0  0  0
  130.6268  132.7786  157.8562 C   0  0  0  0  0  0  0  0  0  0  0  0
  130.2952  132.3249  159.0903 C   0  0  0  0  0  0  0  0  0  0  0  0
  130.3573  133.4018  159.9410 N   0  0  0  0  0  0  0  0  0  0  0  0
  130.1724  133.3931  160.8931 H   0  0  0  0  0  0  0  0  0  0  0  0
  130.7252  134.4831  159.2009 C   0  0  0  0  0  0  0  0  0  0  0  0
  130.9012  135.7685  159.6839 N   0  0  0  0  0  0  0  0  0  0  0  0
  130.1189  136.2332  160.8319 C   0  0  1  0  0  0  0  0  0  0  0  0
  130.3250  135.5979  161.6932 H   0  0  0  0  0  0  0  0  0  0  0  0
  130.4973  137.6558  161.1551 C   0  0  0  0  0  0  0  0  0  0  0  0
  131.4718  137.8544  161.9996 C   0  0  0  0  0  0  0  0  0  0  0  0
  132.1042  136.7419  162.5402 N   0  0  0  0  0  0  0  0  0  0  0  0
  131.9505  139.2125  162.4224 C   0  0  0  0  0  0  0  0  0  0  0  0
  131.4548  140.2753  161.4396 C   0  0  0  0  0  0  0  0  0  0  0  0
  129.9483  140.0781  161.2294 C   0  0  0  0  0  0  0  0  0  0  0  0
  129.7346  138.7589  160.4813 C   0  0  0  0  0  0  0  0  0  0  0  0
  128.6506  136.1673  160.4991 C   0  0  0  0  0  0  0  0  0  0  0  0
  128.1041  136.3103  159.2695 C   0  0  0  0  0  0  0  0  0  0  0  0
  126.7174  136.1789  159.3967 C   0  0  0  0  0  0  0  0  0  0  0  0
  126.4406  135.9724  160.6588 N   0  0  0  0  0  0  0  0  0  0  0  0
  127.6447  135.9611  161.3747 N   0  0  0  0  0  0  0  0  0  0  0  0
  127.7868  135.7609  162.8189 C   0  0  0  0  0  0  0  0  0  0  0  0
  130.8911  134.1055  157.9569 N   0  0  0  0  0  0  0  0  0  0  0  0
  131.1578  134.6831  157.2246 H   0  0  0  0  0  0  0  0  0  0  0  0
  131.0190  130.6127  156.6845 C   0  0  0  0  0  0  0  0  0  0  0  0
  131.0803  129.8619  155.5281 C   0  0  0  0  0  0  0  0  0  0  0  0
  133.0059  129.2643  153.2209 H   0  0  0  0  0  0  0  0  0  0  0  0
  132.3620  129.0715  151.5728 H   0  0  0  0  0  0  0  0  0  0  0  0
  132.5827  130.6998  152.2572 H   0  0  0  0  0  0  0  0  0  0  0  0
  130.1959  130.0294  152.3071 H   0  0  0  0  0  0  0  0  0  0  0  0
  130.6192  128.5940  153.2706 H   0  0  0  0  0  0  0  0  0  0  0  0
  130.3073  132.2507  153.2706 H   0  0  0  0  0  0  0  0  0  0  0  0
  130.1825  133.6029  155.3219 H   0  0  0  0  0  0  0  0  0  0  0  0
  130.0324  131.3110  159.3540 H   0  0  0  0  0  0  0  0  0  0  0  0
  131.5426  136.3615  159.2621 H   0  0  0  0  0  0  0  0  0  0  0  0
  132.1257  135.9079  162.0452 H   0  0  0  0  0  0  0  0  0  0  0  0
  132.5243  136.7990  163.4126 H   0  0  0  0  0  0  0  0  0  0  0  0
  131.5691  139.4359  163.4189 H   0  0  0  0  0  0  0  0  0  0  0  0
  133.0402  139.2217  162.4423 H   0  0  0  0  0  0  0  0  0  0  0  0
  131.6406  141.2682  161.8493 H   0  0  0  0  0  0  0  0  0  0  0  0
  131.9750  140.1653  160.4881 H   0  0  0  0  0  0  0  0  0  0  0  0
  129.4455  140.0407  162.1957 H   0  0  0  0  0  0  0  0  0  0  0  0
  129.5500  140.9023  160.6376 H   0  0  0  0  0  0  0  0  0  0  0  0
  130.0816  138.8624  159.4532 H   0  0  0  0  0  0  0  0  0  0  0  0
  128.6724  138.5148  160.4793 H   0  0  0  0  0  0  0  0  0  0  0  0
  128.6436  136.4915  158.3515 H   0  0  0  0  0  0  0  0  0  0  0  0
  125.9989  136.2409  158.5928 H   0  0  0  0  0  0  0  0  0  0  0  0
  127.7431  136.7252  163.3254 H   0  0  0  0  0  0  0  0  0  0  0  0
  126.9782  135.1246  163.1788 H   0  0  0  0  0  0  0  0  0  0  0  0
  128.7445  135.2842  163.0273 H   0  0  0  0  0  0  0  0  0  0  0  0
  131.2221  130.1520  157.6400 H   0  0  0  0  0  0  0  0  0  0  0  0
  131.3317  128.8127  155.5794 H   0  0  0  0  0  0  0  0  0  0  0  0
  1  2  1  0
  1 32  1  0
  1 33  1  0
  1 34  1  0
  2  3  1  0
  2 35  1  0
  2 36  1  0
  3 31  2  0
  3  4  1  0
  4  5  2  0
  4 37  1  0
  5  6  1  0
  5 38  1  0
  6  7  1  0
  6 30  2  0
  7 28  1  0
  7  8  2  0
  8  9  1  0
  8 39  1  0
  9 10  1  0
  9 11  1  0
 11 12  1  0
 11 28  2  0
 12 13  1  0
 12 40  1  0
 13 14  1  1
 13 15  1  0
 13 22  1  0
 15 21  1  0
 15 16  2  0
 16 17  1  0
 16 18  1  0
 17 41  1  0
 17 42  1  0
 18 19  1  0
 18 43  1  0
 18 44  1  0
 19 20  1  0
 19 45  1  0
 19 46  1  0
 20 21  1  0
 20 47  1  0
 20 48  1  0
 21 49  1  0
 21 50  1  0
 22 26  1  0
 22 23  2  0
 23 24  1  0
 23 51  1  0
 24 25  2  0
 24 52  1  0
 25 26  1  0
 26 27  1  0
 27 53  1  0
 27 54  1  0
 27 55  1  0
 28 29  1  0
 30 31  1  0
 30 56  1  0
 31 57  1  0
M  CHG  1  28   1
M  END
>  <DOCK_score>  (1) 
-52.574734

>  <SMILES>  (1) 
CCc1ccc(-c2c[nH]c(N[C@@H](C3=C(N)CCCC3)c3ccnn3C)[nH+]2)cc1

$$$$
