CCc1ccc(-c2c[nH]c(N[C@H](CCc3ccccc3)c3ccccc3)[nH+]2)cc1
     RDKit          3D

 57 60  0  0  1  0  0  0  0  0999 V2000
  130.4000  128.5344  151.8233 C   0  0  0  0  0  0  0  0  0  0  0  0
  131.4986  129.5479  152.1498 C   0  0  0  0  0  0  0  0  0  0  0  0
  131.1092  130.3336  153.3754 C   0  0  0  0  0  0  0  0  0  0  0  0
  131.4756  129.8801  154.6293 C   0  0  0  0  0  0  0  0  0  0  0  0
  131.1268  130.5983  155.7551 C   0  0  0  0  0  0  0  0  0  0  0  0
  130.3939  131.7768  155.6270 C   0  0  0  0  0  0  0  0  0  0  0  0
  130.0111  132.5503  156.8336 C   0  0  0  0  0  0  0  0  0  0  0  0
  129.2538  132.0988  157.8639 C   0  0  0  0  0  0  0  0  0  0  0  0
  129.1461  133.1325  158.7623 N   0  0  0  0  0  0  0  0  0  0  0  0
  128.6634  133.1146  159.6034 H   0  0  0  0  0  0  0  0  0  0  0  0
  129.8416  134.1862  158.2542 C   0  0  0  0  0  0  0  0  0  0  0  0
  129.9813  135.4253  158.8555 N   0  0  0  0  0  0  0  0  0  0  0  0
  129.3494  135.6861  160.1513 C   0  0  2  0  0  0  0  0  0  0  0  0
  128.2707  135.5569  160.0620 H   0  0  0  0  0  0  0  0  0  0  0  0
  129.6567  137.1196  160.5892 C   0  0  0  0  0  0  0  0  0  0  0  0
  131.1707  137.3011  160.7142 C   0  0  0  0  0  0  0  0  0  0  0  0
  131.4735  138.7131  161.1456 C   0  0  0  0  0  0  0  0  0  0  0  0
  132.5967  138.9774  161.9068 C   0  0  0  0  0  0  0  0  0  0  0  0
  132.8771  140.2732  162.2983 C   0  0  0  0  0  0  0  0  0  0  0  0
  132.0284  141.3031  161.9376 C   0  0  0  0  0  0  0  0  0  0  0  0
  130.9024  141.0381  161.1809 C   0  0  0  0  0  0  0  0  0  0  0  0
  130.6249  139.7430  160.7849 C   0  0  0  0  0  0  0  0  0  0  0  0
  129.8881  134.7214  161.1762 C   0  0  0  0  0  0  0  0  0  0  0  0
  129.0953  134.3270  162.2377 C   0  0  0  0  0  0  0  0  0  0  0  0
  129.5880  133.4391  163.1756 C   0  0  0  0  0  0  0  0  0  0  0  0
  130.8763  132.9520  163.0565 C   0  0  0  0  0  0  0  0  0  0  0  0
  131.6708  133.3506  161.9978 C   0  0  0  0  0  0  0  0  0  0  0  0
  131.1767  134.2355  161.0577 C   0  0  0  0  0  0  0  0  0  0  0  0
  130.3618  133.8326  157.1043 N   0  0  0  0  0  0  0  0  0  0  0  0
  130.9082  134.3982  156.5365 H   0  0  0  0  0  0  0  0  0  0  0  0
  130.0223  132.2263  154.3612 C   0  0  0  0  0  0  0  0  0  0  0  0
  130.3816  131.5030  153.2420 C   0  0  0  0  0  0  0  0  0  0  0  0
  130.2721  127.8541  152.6653 H   0  0  0  0  0  0  0  0  0  0  0  0
  129.4639  129.0604  151.6357 H   0  0  0  0  0  0  0  0  0  0  0  0
  130.6816  127.9663  150.9367 H   0  0  0  0  0  0  0  0  0  0  0  0
  132.4344  129.0225  152.3369 H   0  0  0  0  0  0  0  0  0  0  0  0
  131.6263  130.2287  151.3073 H   0  0  0  0  0  0  0  0  0  0  0  0
  132.0394  128.9642  154.7277 H   0  0  0  0  0  0  0  0  0  0  0  0
  131.4175  130.2457  156.7336 H   0  0  0  0  0  0  0  0  0  0  0  0
  128.8183  131.1152  157.9596 H   0  0  0  0  0  0  0  0  0  0  0  0
  130.4977  136.1208  158.4190 H   0  0  0  0  0  0  0  0  0  0  0  0
  129.2672  137.8174  159.8479 H   0  0  0  0  0  0  0  0  0  0  0  0
  129.1866  137.3137  161.5532 H   0  0  0  0  0  0  0  0  0  0  0  0
  131.5604  136.6035  161.4556 H   0  0  0  0  0  0  0  0  0  0  0  0
  131.6409  137.1070  159.7502 H   0  0  0  0  0  0  0  0  0  0  0  0
  133.2574  138.1721  162.1924 H   0  0  0  0  0  0  0  0  0  0  0  0
  133.7565  140.4803  162.8897 H   0  0  0  0  0  0  0  0  0  0  0  0
  132.2450  142.3148  162.2473 H   0  0  0  0  0  0  0  0  0  0  0  0
  130.2392  141.8425  160.8993 H   0  0  0  0  0  0  0  0  0  0  0  0
  129.7450  139.5357  160.1939 H   0  0  0  0  0  0  0  0  0  0  0  0
  128.0901  134.7101  162.3326 H   0  0  0  0  0  0  0  0  0  0  0  0
  128.9675  133.1280  164.0030 H   0  0  0  0  0  0  0  0  0  0  0  0
  131.2622  132.2604  163.7907 H   0  0  0  0  0  0  0  0  0  0  0  0
  132.6773  132.9703  161.9049 H   0  0  0  0  0  0  0  0  0  0  0  0
  131.7974  134.5469  160.2305 H   0  0  0  0  0  0  0  0  0  0  0  0
  129.4542  133.1388  154.2561 H   0  0  0  0  0  0  0  0  0  0  0  0
  130.0940  131.8502  152.2606 H   0  0  0  0  0  0  0  0  0  0  0  0
  1  2  1  0
  1 33  1  0
  1 34  1  0
  1 35  1  0
  2  3  1  0
  2 36  1  0
  2 37  1  0
  3 32  2  0
  3  4  1  0
  4  5  2  0
  4 38  1  0
  5  6  1  0
  5 39  1  0
  6  7  1  0
  6 31  2  0
  7 29  1  0
  7  8  2  0
  8  9  1  0
  8 40  1  0
  9 10  1  0
  9 11  1  0
 11 12  1  0
 11 29  2  0
 12 13  1  0
 12 41  1  0
 13 14  1  6
 13 15  1  0
 13 23  1  0
 15 16  1  0
 15 42  1  0
 15 43  1  0
 16 17  1  0
 16 44  1  0
 16 45  1  0
 17 22  1  0
 17 18  2  0
 18 19  1  0
 18 46  1  0
 19 20  2  0
 19 47  1  0
 20 21  1  0
 20 48  1  0
 21 22  2  0
 21 49  1  0
 22 50  1  0
 23 28  1  0
 23 24  2  0
 24 25  1  0
 24 51  1  0
 25 26  2  0
 25 52  1  0
 26 27  1  0
 26 53  1  0
 27 28  2  0
 27 54  1  0
 28 55  1  0
 29 30  1  0
 31 32  1  0
 31 56  1  0
 32 57  1  0
M  CHG  1  29   1
M  END
>  <DOCK_score>  (1) 
-58.333435

>  <SMILES>  (1) 
CCc1ccc(-c2c[nH]c(N[C@H](CCc3ccccc3)c3ccccc3)[nH+]2)cc1

$$$$
