C[C@@H](Cc1cn[nH]c1)[NH2+]Cc1c[nH]nc1-c1ccc(Nc2c[nH]c3ccccc23)o1
     RDKit          3D

 54 58  0  0  1  0  0  0  0  0999 V2000
  131.4747  139.6639  159.5952 C   0  0  0  0  0  0  0  0  0  0  0  0
  131.1389  138.4605  160.4782 C   0  0  1  0  0  0  0  0  0  0  0  0
  131.9744  138.2568  161.1478 H   0  0  0  0  0  0  0  0  0  0  0  0
  129.8872  138.7669  161.3032 C   0  0  0  0  0  0  0  0  0  0  0  0
  130.1405  139.9722  162.1715 C   0  0  0  0  0  0  0  0  0  0  0  0
  129.8999  141.3046  161.8203 C   0  0  0  0  0  0  0  0  0  0  0  0
  130.2431  142.0620  162.8306 N   0  0  0  0  0  0  0  0  0  0  0  0
  130.7137  141.2341  163.8580 N   0  0  0  0  0  0  0  0  0  0  0  0
  131.0354  141.5273  164.7249 H   0  0  0  0  0  0  0  0  0  0  0  0
  130.6354  139.9565  163.4307 C   0  0  0  0  0  0  0  0  0  0  0  0
  130.8919  137.2856  159.6317 N   0  0  0  0  0  0  0  0  0  0  0  0
  129.9549  137.3299  159.2601 H   0  0  0  0  0  0  0  0  0  0  0  0
  131.5552  137.2734  158.8715 H   0  0  0  0  0  0  0  0  0  0  0  0
  131.0434  136.0639  160.4335 C   0  0  0  0  0  0  0  0  0  0  0  0
  130.7902  134.8586  159.5650 C   0  0  0  0  0  0  0  0  0  0  0  0
  131.7153  134.1889  158.8447 C   0  0  0  0  0  0  0  0  0  0  0  0
  131.0940  133.1734  158.2068 N   0  0  0  0  0  0  0  0  0  0  0  0
  131.5167  132.5271  157.6197 H   0  0  0  0  0  0  0  0  0  0  0  0
  129.7332  133.2178  158.5353 N   0  0  0  0  0  0  0  0  0  0  0  0
  129.5432  134.2331  159.3550 C   0  0  0  0  0  0  0  0  0  0  0  0
  128.2536  134.6424  159.9485 C   0  0  0  0  0  0  0  0  0  0  0  0
  127.0554  134.0325  159.7477 C   0  0  0  0  0  0  0  0  0  0  0  0
  126.1026  134.7466  160.5001 C   0  0  0  0  0  0  0  0  0  0  0  0
  126.7642  135.7551  161.1220 C   0  0  0  0  0  0  0  0  0  0  0  0
  126.1949  136.7002  161.9658 N   0  0  0  0  0  0  0  0  0  0  0  0
  126.9561  137.2647  163.0045 C   0  0  0  0  0  0  0  0  0  0  0  0
  127.9612  136.6705  163.6758 C   0  0  0  0  0  0  0  0  0  0  0  0
  128.4671  137.5365  164.6168 N   0  0  0  0  0  0  0  0  0  0  0  0
  129.1980  137.3366  165.2223 H   0  0  0  0  0  0  0  0  0  0  0  0
  127.7767  138.7270  164.5759 C   0  0  0  0  0  0  0  0  0  0  0  0
  127.8732  139.9130  165.2976 C   0  0  0  0  0  0  0  0  0  0  0  0
  127.0173  140.9553  165.0183 C   0  0  0  0  0  0  0  0  0  0  0  0
  126.0573  140.8356  164.0224 C   0  0  0  0  0  0  0  0  0  0  0  0
  125.9456  139.6803  163.3016 C   0  0  0  0  0  0  0  0  0  0  0  0
  126.8027  138.6113  163.5679 C   0  0  0  0  0  0  0  0  0  0  0  0
  128.0642  135.6823  160.7877 O   0  0  0  0  0  0  0  0  0  0  0  0
  130.6136  139.9103  158.9738 H   0  0  0  0  0  0  0  0  0  0  0  0
  131.7249  140.5179  160.2245 H   0  0  0  0  0  0  0  0  0  0  0  0
  132.3249  139.4207  158.9578 H   0  0  0  0  0  0  0  0  0  0  0  0
  129.0517  138.9706  160.6337 H   0  0  0  0  0  0  0  0  0  0  0  0
  129.6479  137.9097  161.9325 H   0  0  0  0  0  0  0  0  0  0  0  0
  129.5003  141.6489  160.8779 H   0  0  0  0  0  0  0  0  0  0  0  0
  130.9196  139.0788  163.9924 H   0  0  0  0  0  0  0  0  0  0  0  0
  132.0557  136.0162  160.8349 H   0  0  0  0  0  0  0  0  0  0  0  0
  130.3270  136.0771  161.2547 H   0  0  0  0  0  0  0  0  0  0  0  0
  132.7681  134.4234  158.7897 H   0  0  0  0  0  0  0  0  0  0  0  0
  126.8696  133.1666  159.1295 H   0  0  0  0  0  0  0  0  0  0  0  0
  125.0464  134.5320  160.5692 H   0  0  0  0  0  0  0  0  0  0  0  0
  125.2721  136.9709  161.8386 H   0  0  0  0  0  0  0  0  0  0  0  0
  128.3181  135.6666  163.4996 H   0  0  0  0  0  0  0  0  0  0  0  0
  128.6168  140.0157  166.0742 H   0  0  0  0  0  0  0  0  0  0  0  0
  127.0939  141.8750  165.5792 H   0  0  0  0  0  0  0  0  0  0  0  0
  125.3937  141.6622  163.8158 H   0  0  0  0  0  0  0  0  0  0  0  0
  125.1964  139.5945  162.5285 H   0  0  0  0  0  0  0  0  0  0  0  0
  1  2  1  0
  1 37  1  0
  1 38  1  0
  1 39  1  0
  2  3  1  1
  2  4  1  0
  2 11  1  0
  4  5  1  0
  4 40  1  0
  4 41  1  0
  5 10  2  0
  5  6  1  0
  6  7  2  0
  6 42  1  0
  7  8  1  0
  8  9  1  0
  8 10  1  0
 10 43  1  0
 11 12  1  0
 11 13  1  0
 11 14  1  0
 14 15  1  0
 14 44  1  0
 14 45  1  0
 15 20  1  0
 15 16  2  0
 16 17  1  0
 16 46  1  0
 17 18  1  0
 17 19  1  0
 19 20  2  0
 20 21  1  0
 21 36  1  0
 21 22  2  0
 22 23  1  0
 22 47  1  0
 23 24  2  0
 23 48  1  0
 24 25  1  0
 24 36  1  0
 25 26  1  0
 25 49  1  0
 26 35  1  0
 26 27  2  0
 27 28  1  0
 27 50  1  0
 28 29  1  0
 28 30  1  0
 30 35  2  0
 30 31  1  0
 31 32  2  0
 31 51  1  0
 32 33  1  0
 32 52  1  0
 33 34  2  0
 33 53  1  0
 34 35  1  0
 34 54  1  0
M  CHG  1  11   1
M  END
>  <DOCK_score>  (1) 
-50.060226

>  <SMILES>  (1) 
C[C@@H](Cc1cn[nH]c1)[NH2+]Cc1c[nH]nc1-c1ccc(Nc2c[nH]c3ccccc23)o1

$$$$
