C[NH+](Cc1c[nH]nc1-c1ccc(N[C@@H]2Cc3ccc(F)cc3C2)o1)C1CCCCCC1
     RDKit          3D

 63 67  0  0  1  0  0  0  0  0999 V2000
  130.0711  137.7309  159.5989 C   0  0  0  0  0  0  0  0  0  0  0  0
  131.4921  137.3979  159.7652 N   0  0  2  0  0  0  0  0  0  0  0  0
  131.8855  137.1460  158.8708 H   0  0  0  0  0  0  0  0  0  0  0  0
  131.6248  136.2678  160.6943 C   0  0  0  0  0  0  0  0  0  0  0  0
  131.3414  134.9806  159.9634 C   0  0  0  0  0  0  0  0  0  0  0  0
  132.2497  134.2115  159.3261 C   0  0  0  0  0  0  0  0  0  0  0  0
  131.6029  133.1488  158.8001 N   0  0  0  0  0  0  0  0  0  0  0  0
  132.0088  132.4319  158.2881 H   0  0  0  0  0  0  0  0  0  0  0  0
  130.2442  133.2610  159.1216 N   0  0  0  0  0  0  0  0  0  0  0  0
  130.0806  134.3620  159.8286 C   0  0  0  0  0  0  0  0  0  0  0  0
  128.8034  134.8610  160.3785 C   0  0  0  0  0  0  0  0  0  0  0  0
  127.5920  134.2581  160.2510 C   0  0  0  0  0  0  0  0  0  0  0  0
  126.6585  135.0712  160.9240 C   0  0  0  0  0  0  0  0  0  0  0  0
  127.3444  136.1274  161.4277 C   0  0  0  0  0  0  0  0  0  0  0  0
  126.7996  137.1724  162.1647 N   0  0  0  0  0  0  0  0  0  0  0  0
  127.6609  138.2539  162.6494 C   0  0  2  0  0  0  0  0  0  0  0  0
  128.3981  138.5276  161.8948 H   0  0  0  0  0  0  0  0  0  0  0  0
  128.3508  137.8552  163.9713 C   0  0  0  0  0  0  0  0  0  0  0  0
  128.4242  139.1323  164.7809 C   0  0  0  0  0  0  0  0  0  0  0  0
  129.2004  139.4525  165.8826 C   0  0  0  0  0  0  0  0  0  0  0  0
  129.0987  140.6996  166.4660 C   0  0  0  0  0  0  0  0  0  0  0  0
  128.2179  141.6344  165.9484 C   0  0  0  0  0  0  0  0  0  0  0  0
  128.1157  142.8556  166.5172 F   0  0  0  0  0  0  0  0  0  0  0  0
  127.4426  141.3154  164.8482 C   0  0  0  0  0  0  0  0  0  0  0  0
  127.5448  140.0645  164.2632 C   0  0  0  0  0  0  0  0  0  0  0  0
  126.8202  139.4778  163.0707 C   0  0  0  0  0  0  0  0  0  0  0  0
  128.6403  135.9908  161.0987 O   0  0  0  0  0  0  0  0  0  0  0  0
  132.2079  138.5618  160.3046 C   0  0  0  0  0  0  0  0  0  0  0  0
  131.9291  138.6680  161.7290 C   0  0  0  0  0  0  0  0  0  0  0  0
  132.5903  139.9079  162.3648 C   0  0  0  0  0  0  0  0  0  0  0  0
  134.0398  139.5952  162.6255 C   0  0  0  0  0  0  0  0  0  0  0  0
  134.9559  140.0533  161.4746 C   0  0  0  0  0  0  0  0  0  0  0  0
  134.3611  139.7589  160.0841 C   0  0  0  0  0  0  0  0  0  0  0  0
  133.7136  138.4026  160.0105 C   0  0  0  0  0  0  0  0  0  0  0  0
  129.9633  138.4839  158.8181 H   0  0  0  0  0  0  0  0  0  0  0  0
  129.5184  136.8346  159.3178 H   0  0  0  0  0  0  0  0  0  0  0  0
  129.6771  138.1214  160.5371 H   0  0  0  0  0  0  0  0  0  0  0  0
  132.6385  136.2430  161.0939 H   0  0  0  0  0  0  0  0  0  0  0  0
  130.9144  136.3848  161.5126 H   0  0  0  0  0  0  0  0  0  0  0  0
  133.3084  134.4110  159.2501 H   0  0  0  0  0  0  0  0  0  0  0  0
  127.3845  133.3335  159.7328 H   0  0  0  0  0  0  0  0  0  0  0  0
  125.5985  134.8882  161.0204 H   0  0  0  0  0  0  0  0  0  0  0  0
  125.8492  137.1856  162.3581 H   0  0  0  0  0  0  0  0  0  0  0  0
  127.7571  137.1076  164.4974 H   0  0  0  0  0  0  0  0  0  0  0  0
  129.3521  137.4721  163.7747 H   0  0  0  0  0  0  0  0  0  0  0  0
  129.8877  138.7240  166.2865 H   0  0  0  0  0  0  0  0  0  0  0  0
  129.7051  140.9456  167.3252 H   0  0  0  0  0  0  0  0  0  0  0  0
  126.7552  142.0440  164.4444 H   0  0  0  0  0  0  0  0  0  0  0  0
  126.7770  140.2043  162.2593 H   0  0  0  0  0  0  0  0  0  0  0  0
  125.8148  139.1665  163.3546 H   0  0  0  0  0  0  0  0  0  0  0  0
  131.8438  139.4601  159.8057 H   0  0  0  0  0  0  0  0  0  0  0  0
  130.8506  138.7297  161.8741 H   0  0  0  0  0  0  0  0  0  0  0  0
  132.3015  137.7739  162.2292 H   0  0  0  0  0  0  0  0  0  0  0  0
  132.5137  140.7543  161.6821 H   0  0  0  0  0  0  0  0  0  0  0  0
  132.0933  140.1463  163.3052 H   0  0  0  0  0  0  0  0  0  0  0  0
  134.1509  138.5189  162.7575 H   0  0  0  0  0  0  0  0  0  0  0  0
  134.3486  140.0963  163.5428 H   0  0  0  0  0  0  0  0  0  0  0  0
  135.9140  139.5412  161.5627 H   0  0  0  0  0  0  0  0  0  0  0  0
  135.1220  141.1268  161.5657 H   0  0  0  0  0  0  0  0  0  0  0  0
  135.1576  139.8102  159.3418 H   0  0  0  0  0  0  0  0  0  0  0  0
  133.6152  140.5188  159.8515 H   0  0  0  0  0  0  0  0  0  0  0  0
  134.1635  137.7413  160.7510 H   0  0  0  0  0  0  0  0  0  0  0  0
  133.8496  137.9824  159.0139 H   0  0  0  0  0  0  0  0  0  0  0  0
  1  2  1  0
  1 35  1  0
  1 36  1  0
  1 37  1  0
  2  3  1  6
  2  4  1  0
  2 28  1  0
  4  5  1  0
  4 38  1  0
  4 39  1  0
  5 10  1  0
  5  6  2  0
  6  7  1  0
  6 40  1  0
  7  8  1  0
  7  9  1  0
  9 10  2  0
 10 11  1  0
 11 27  1  0
 11 12  2  0
 12 13  1  0
 12 41  1  0
 13 14  2  0
 13 42  1  0
 14 15  1  0
 14 27  1  0
 15 16  1  0
 15 43  1  0
 16 17  1  6
 16 26  1  0
 16 18  1  0
 18 19  1  0
 18 44  1  0
 18 45  1  0
 19 25  2  0
 19 20  1  0
 20 21  2  0
 20 46  1  0
 21 22  1  0
 21 47  1  0
 22 23  1  0
 22 24  2  0
 24 25  1  0
 24 48  1  0
 25 26  1  0
 26 49  1  0
 26 50  1  0
 28 34  1  0
 28 29  1  0
 28 51  1  0
 29 30  1  0
 29 52  1  0
 29 53  1  0
 30 31  1  0
 30 54  1  0
 30 55  1  0
 31 32  1  0
 31 56  1  0
 31 57  1  0
 32 33  1  0
 32 58  1  0
 32 59  1  0
 33 34  1  0
 33 60  1  0
 33 61  1  0
 34 62  1  0
 34 63  1  0
M  CHG  1   2   1
M  END
>  <DOCK_score>  (1) 
-43.345814

>  <SMILES>  (1) 
C[NH+](Cc1c[nH]nc1-c1ccc(N[C@@H]2Cc3ccc(F)cc3C2)o1)C1CCCCCC1

$$$$
