CC1=C(c2ccc(-c3c[nH]c(NC(C4[C@H](C)[C@H]4C)[C@H](C(N)=O)c4ccc(F)cc4)[nH+]3)cc2)CCC1
     RDKit          3D

 69 73  0  0  1  0  0  0  0  0999 V2000
  132.4607  129.1755  153.0198 C   0  0  0  0  0  0  0  0  0  0  0  0
  131.1434  129.4710  152.3500 C   0  0  0  0  0  0  0  0  0  0  0  0
  130.2023  130.2509  152.8554 C   0  0  0  0  0  0  0  0  0  0  0  0
  130.2999  130.9501  154.1528 C   0  0  0  0  0  0  0  0  0  0  0  0
  130.2256  132.3438  154.2026 C   0  0  0  0  0  0  0  0  0  0  0  0
  130.3172  132.9949  155.4123 C   0  0  0  0  0  0  0  0  0  0  0  0
  130.4842  132.2626  156.5882 C   0  0  0  0  0  0  0  0  0  0  0  0
  130.5831  132.9644  157.8900 C   0  0  0  0  0  0  0  0  0  0  0  0
  130.1919  132.4742  159.0932 C   0  0  0  0  0  0  0  0  0  0  0  0
  130.4614  133.4458  160.0259 N   0  0  0  0  0  0  0  0  0  0  0  0
  130.2925  133.3893  160.9794 H   0  0  0  0  0  0  0  0  0  0  0  0
  131.0096  134.5020  159.3655 C   0  0  0  0  0  0  0  0  0  0  0  0
  131.4246  135.6884  159.9460 N   0  0  0  0  0  0  0  0  0  0  0  0
  131.2879  135.8836  161.3914 C   0  0  1  0  0  0  0  0  0  0  0  0
  132.3976  136.8126  161.8878 C   0  0  0  0  0  0  0  0  0  0  0  0
  133.6982  136.1658  162.3680 C   0  0  2  0  0  0  0  0  0  0  0  0
  134.6281  136.6998  162.1722 H   0  0  0  0  0  0  0  0  0  0  0  0
  133.7899  134.6396  162.3150 C   0  0  0  0  0  0  0  0  0  0  0  0
  132.7303  136.7808  163.3808 C   0  0  1  0  0  0  0  0  0  0  0  0
  132.1588  136.0979  164.0095 H   0  0  0  0  0  0  0  0  0  0  0  0
  133.1412  138.0984  164.0412 C   0  0  0  0  0  0  0  0  0  0  0  0
  129.9250  136.5093  161.6949 C   0  0  2  0  0  0  0  0  0  0  0  0
  129.9677  137.5820  161.5063 H   0  0  0  0  0  0  0  0  0  0  0  0
  129.5716  136.2670  163.1398 C   0  0  0  0  0  0  0  0  0  0  0  0
  128.8048  137.1543  163.8040 N   0  0  0  0  0  0  0  0  0  0  0  0
  129.9772  135.2734  163.7048 O   0  0  0  0  0  0  0  0  0  0  0  0
  128.8773  135.8849  160.8100 C   0  0  0  0  0  0  0  0  0  0  0  0
  128.5935  136.4418  159.5768 C   0  0  0  0  0  0  0  0  0  0  0  0
  127.6367  135.8667  158.7620 C   0  0  0  0  0  0  0  0  0  0  0  0
  126.9544  134.7390  159.1859 C   0  0  0  0  0  0  0  0  0  0  0  0
  126.0150  134.1792  158.3927 F   0  0  0  0  0  0  0  0  0  0  0  0
  127.2355  134.1854  160.4236 C   0  0  0  0  0  0  0  0  0  0  0  0
  128.1963  134.7591  161.2344 C   0  0  0  0  0  0  0  0  0  0  0  0
  131.0862  134.2086  158.0905 N   0  0  0  0  0  0  0  0  0  0  0  0
  131.4429  134.7891  157.4001 H   0  0  0  0  0  0  0  0  0  0  0  0
  130.5585  130.8702  156.5391 C   0  0  0  0  0  0  0  0  0  0  0  0
  130.4676  130.2178  155.3303 C   0  0  0  0  0  0  0  0  0  0  0  0
  129.0163  130.3347  151.9229 C   0  0  0  0  0  0  0  0  0  0  0  0
  129.1898  129.1424  150.9543 C   0  0  0  0  0  0  0  0  0  0  0  0
  130.7175  128.9135  151.0117 C   0  0  0  0  0  0  0  0  0  0  0  0
  132.3575  128.2925  153.6505 H   0  0  0  0  0  0  0  0  0  0  0  0
  133.2214  128.9932  152.2610 H   0  0  0  0  0  0  0  0  0  0  0  0
  132.7558  130.0273  153.6328 H   0  0  0  0  0  0  0  0  0  0  0  0
  130.0918  132.9105  153.2930 H   0  0  0  0  0  0  0  0  0  0  0  0
  130.2593  134.0726  155.4510 H   0  0  0  0  0  0  0  0  0  0  0  0
  129.7531  131.5056  159.2816 H   0  0  0  0  0  0  0  0  0  0  0  0
  131.8058  136.3903  159.3957 H   0  0  0  0  0  0  0  0  0  0  0  0
  131.3665  134.9212  161.8972 H   0  0  0  0  0  0  0  0  0  0  0  0
  132.4713  137.7722  161.3760 H   0  0  0  0  0  0  0  0  0  0  0  0
  133.6178  134.3005  161.2935 H   0  0  0  0  0  0  0  0  0  0  0  0
  134.7808  134.3234  162.6407 H   0  0  0  0  0  0  0  0  0  0  0  0
  133.0361  134.2073  162.9731 H   0  0  0  0  0  0  0  0  0  0  0  0
  132.3324  138.8223  163.9418 H   0  0  0  0  0  0  0  0  0  0  0  0
  133.3471  137.9265  165.0977 H   0  0  0  0  0  0  0  0  0  0  0  0
  134.0367  138.4849  163.5548 H   0  0  0  0  0  0  0  0  0  0  0  0
  128.4806  137.9490  163.3519 H   0  0  0  0  0  0  0  0  0  0  0  0
  128.5774  136.9984  164.7339 H   0  0  0  0  0  0  0  0  0  0  0  0
  129.1227  137.3241  159.2483 H   0  0  0  0  0  0  0  0  0  0  0  0
  127.4181  136.2995  157.7970 H   0  0  0  0  0  0  0  0  0  0  0  0
  126.7037  133.3059  160.7552 H   0  0  0  0  0  0  0  0  0  0  0  0
  128.4157  134.3276  162.1998 H   0  0  0  0  0  0  0  0  0  0  0  0
  130.6879  130.3042  157.4497 H   0  0  0  0  0  0  0  0  0  0  0  0
  130.5252  129.1399  155.2925 H   0  0  0  0  0  0  0  0  0  0  0  0
  128.0860  130.2368  152.4822 H   0  0  0  0  0  0  0  0  0  0  0  0
  129.0319  131.2757  151.3728 H   0  0  0  0  0  0  0  0  0  0  0  0
  128.6499  128.2662  151.3132 H   0  0  0  0  0  0  0  0  0  0  0  0
  128.8717  129.4086  149.9463 H   0  0  0  0  0  0  0  0  0  0  0  0
  130.9441  127.8491  150.9516 H   0  0  0  0  0  0  0  0  0  0  0  0
  131.2126  129.4540  150.2049 H   0  0  0  0  0  0  0  0  0  0  0  0
  1  2  1  0
  1 41  1  0
  1 42  1  0
  1 43  1  0
  2 40  1  0
  2  3  2  0
  3  4  1  0
  3 38  1  0
  4 37  1  0
  4  5  2  0
  5  6  1  0
  5 44  1  0
  6  7  2  0
  6 45  1  0
  7  8  1  0
  7 36  1  0
  8 34  1  0
  8  9  2  0
  9 10  1  0
  9 46  1  0
 10 11  1  0
 10 12  1  0
 12 13  1  0
 12 34  2  0
 13 14  1  0
 13 47  1  0
 14 15  1  0
 14 22  1  0
 14 48  1  1
 15 19  1  0
 15 16  1  0
 15 49  1  0
 16 17  1  6
 16 18  1  0
 16 19  1  0
 18 50  1  0
 18 51  1  0
 18 52  1  0
 19 20  1  1
 19 21  1  0
 21 53  1  0
 21 54  1  0
 21 55  1  0
 22 23  1  1
 22 24  1  0
 22 27  1  0
 24 25  1  0
 24 26  2  0
 25 56  1  0
 25 57  1  0
 27 33  1  0
 27 28  2  0
 28 29  1  0
 28 58  1  0
 29 30  2  0
 29 59  1  0
 30 31  1  0
 30 32  1  0
 32 33  2  0
 32 60  1  0
 33 61  1  0
 34 35  1  0
 36 37  2  0
 36 62  1  0
 37 63  1  0
 38 39  1  0
 38 64  1  0
 38 65  1  0
 39 40  1  0
 39 66  1  0
 39 67  1  0
 40 68  1  0
 40 69  1  0
M  CHG  1  34   1
M  END
>  <DOCK_score>  (1) 
-56.833988

>  <SMILES>  (1) 
CC1=C(c2ccc(-c3c[nH]c(NC(C4[C@H](C)[C@H]4C)[C@H](C(N)=O)c4ccc(F)cc4)[nH+]3)cc2)CCC1

$$$$
