CCc1ccnc(NCC2=CC[N@H+](Cc3cnn(-c4ccccc4)c3)CC2)n1
     RDKit          3D

 55 58  0  0  1  0  0  0  0  0999 V2000
  136.1365  140.5223  163.9489 C   0  0  0  0  0  0  0  0  0  0  0  0
  135.2211  141.3680  163.0614 C   0  0  0  0  0  0  0  0  0  0  0  0
  135.1768  140.7755  161.6765 C   0  0  0  0  0  0  0  0  0  0  0  0
  136.0899  141.1751  160.7129 C   0  0  0  0  0  0  0  0  0  0  0  0
  136.0109  140.6093  159.4503 C   0  0  0  0  0  0  0  0  0  0  0  0
  135.0795  139.7020  159.2069 N   0  0  0  0  0  0  0  0  0  0  0  0
  134.2218  139.3420  160.1502 C   0  0  0  0  0  0  0  0  0  0  0  0
  133.2563  138.3939  159.8592 N   0  0  0  0  0  0  0  0  0  0  0  0
  132.2991  137.9830  160.8893 C   0  0  0  0  0  0  0  0  0  0  0  0
  131.3626  136.9484  160.3207 C   0  0  0  0  0  0  0  0  0  0  0  0
  130.2634  137.3458  159.7539 C   0  0  0  0  0  0  0  0  0  0  0  0
  129.2577  136.4026  159.1600 C   0  0  0  0  0  0  0  0  0  0  0  0
  129.8653  135.0878  158.9237 N   0  0  2  0  0  0  0  0  0  0  0  0
  130.5588  135.1624  158.1945 H   0  0  0  0  0  0  0  0  0  0  0  0
  128.8262  134.1309  158.5210 C   0  0  0  0  0  0  0  0  0  0  0  0
  129.4654  132.9606  157.8192 C   0  0  0  0  0  0  0  0  0  0  0  0
  129.9286  131.7888  158.4276 C   0  0  0  0  0  0  0  0  0  0  0  0
  130.4140  131.0079  157.4961 N   0  0  0  0  0  0  0  0  0  0  0  0
  130.2837  131.6621  156.2643 N   0  0  0  0  0  0  0  0  0  0  0  0
  130.6882  131.1630  155.0182 C   0  0  0  0  0  0  0  0  0  0  0  0
  130.4932  131.9185  153.8698 C   0  0  0  0  0  0  0  0  0  0  0  0
  130.8979  131.4266  152.6443 C   0  0  0  0  0  0  0  0  0  0  0  0
  131.4867  130.1783  152.5590 C   0  0  0  0  0  0  0  0  0  0  0  0
  131.6770  129.4211  153.7003 C   0  0  0  0  0  0  0  0  0  0  0  0
  131.2795  129.9101  154.9295 C   0  0  0  0  0  0  0  0  0  0  0  0
  129.6980  132.8598  156.4898 C   0  0  0  0  0  0  0  0  0  0  0  0
  130.5048  134.6269  160.1664 C   0  0  0  0  0  0  0  0  0  0  0  0
  131.7397  135.4965  160.4262 C   0  0  0  0  0  0  0  0  0  0  0  0
  134.2665  139.8676  161.3656 N   0  0  0  0  0  0  0  0  0  0  0  0
  135.7517  139.5038  164.0016 H   0  0  0  0  0  0  0  0  0  0  0  0
  137.1414  140.5097  163.5269 H   0  0  0  0  0  0  0  0  0  0  0  0
  136.1684  140.9509  164.9507 H   0  0  0  0  0  0  0  0  0  0  0  0
  135.6059  142.3865  163.0088 H   0  0  0  0  0  0  0  0  0  0  0  0
  134.2162  141.3806  163.4835 H   0  0  0  0  0  0  0  0  0  0  0  0
  136.8435  141.9146  160.9400 H   0  0  0  0  0  0  0  0  0  0  0  0
  136.7042  140.9024  158.6758 H   0  0  0  0  0  0  0  0  0  0  0  0
  133.2135  138.0015  158.9731 H   0  0  0  0  0  0  0  0  0  0  0  0
  132.8375  137.5590  161.7370 H   0  0  0  0  0  0  0  0  0  0  0  0
  131.7263  138.8496  161.2193 H   0  0  0  0  0  0  0  0  0  0  0  0
  130.0635  138.4061  159.7072 H   0  0  0  0  0  0  0  0  0  0  0  0
  128.4173  136.2933  159.8457 H   0  0  0  0  0  0  0  0  0  0  0  0
  128.8972  136.8084  158.2147 H   0  0  0  0  0  0  0  0  0  0  0  0
  128.2947  133.7783  159.4050 H   0  0  0  0  0  0  0  0  0  0  0  0
  128.1239  134.6199  157.8459 H   0  0  0  0  0  0  0  0  0  0  0  0
  129.8896  131.5659  159.4835 H   0  0  0  0  0  0  0  0  0  0  0  0
  130.0294  132.8917  153.9352 H   0  0  0  0  0  0  0  0  0  0  0  0
  130.7506  132.0157  151.7512 H   0  0  0  0  0  0  0  0  0  0  0  0
  131.7986  129.7941  151.5992 H   0  0  0  0  0  0  0  0  0  0  0  0
  132.1374  128.4467  153.6307 H   0  0  0  0  0  0  0  0  0  0  0  0
  131.4288  129.3185  155.8205 H   0  0  0  0  0  0  0  0  0  0  0  0
  129.4588  133.6026  155.7432 H   0  0  0  0  0  0  0  0  0  0  0  0
  129.8040  134.7222  160.9958 H   0  0  0  0  0  0  0  0  0  0  0  0
  130.8051  133.5846  160.0589 H   0  0  0  0  0  0  0  0  0  0  0  0
  132.5105  135.2673  159.6904 H   0  0  0  0  0  0  0  0  0  0  0  0
  132.1213  135.2924  161.4267 H   0  0  0  0  0  0  0  0  0  0  0  0
  1  2  1  0
  1 30  1  0
  1 31  1  0
  1 32  1  0
  2  3  1  0
  2 33  1  0
  2 34  1  0
  3 29  2  0
  3  4  1  0
  4  5  2  0
  4 35  1  0
  5  6  1  0
  5 36  1  0
  6  7  2  0
  7  8  1  0
  7 29  1  0
  8  9  1  0
  8 37  1  0
  9 10  1  0
  9 38  1  0
  9 39  1  0
 10 28  1  0
 10 11  2  0
 11 12  1  0
 11 40  1  0
 12 13  1  0
 12 41  1  0
 12 42  1  0
 13 14  1  6
 13 15  1  0
 13 27  1  0
 15 16  1  0
 15 43  1  0
 15 44  1  0
 16 26  2  0
 16 17  1  0
 17 18  2  0
 17 45  1  0
 18 19  1  0
 19 20  1  0
 19 26  1  0
 20 25  1  0
 20 21  2  0
 21 22  1  0
 21 46  1  0
 22 23  2  0
 22 47  1  0
 23 24  1  0
 23 48  1  0
 24 25  2  0
 24 49  1  0
 25 50  1  0
 26 51  1  0
 27 28  1  0
 27 52  1  0
 27 53  1  0
 28 54  1  0
 28 55  1  0
M  CHG  1  13   1
M  END
>  <DOCK_score>  (1) 
-56.191708

>  <SMILES>  (1) 
CCc1ccnc(NCC2=CC[N@H+](Cc3cnn(-c4ccccc4)c3)CC2)n1

$$$$
