C/C=C/C=C/CNC(NC1CC=CC1)=[NH+][C@H]1CCC(=O)NC1
     RDKit          3D

 49 50  0  0  1  0  0  0  0  0999 V2000
  135.4764  140.6123  160.0661 C   0  0  0  0  0  0  0  0  0  0  0  0
  135.0915  139.2549  160.5952 C   0  0  0  0  0  0  0  0  0  0  0  0
  133.8790  138.7677  160.3553 C   0  0  0  0  0  0  0  0  0  0  0  0
  133.5032  137.4423  160.8720 C   0  0  0  0  0  0  0  0  0  0  0  0
  132.2905  136.9552  160.6320 C   0  0  0  0  0  0  0  0  0  0  0  0
  131.9056  135.5977  161.1612 C   0  0  0  0  0  0  0  0  0  0  0  0
  131.5574  134.7183  160.0425 N   0  0  0  0  0  0  0  0  0  0  0  0
  130.2591  134.6572  159.5943 C   0  0  0  0  0  0  0  0  0  0  0  0
  129.9323  133.8319  158.5446 N   0  0  0  0  0  0  0  0  0  0  0  0
  130.9677  133.0174  157.9035 C   0  0  0  0  0  0  0  0  0  0  0  0
  130.5486  132.6138  156.4708 C   0  0  0  0  0  0  0  0  0  0  0  0
  131.0647  131.2029  156.3035 C   0  0  0  0  0  0  0  0  0  0  0  0
  131.3604  130.6702  157.4579 C   0  0  0  0  0  0  0  0  0  0  0  0
  131.0903  131.6361  158.5880 C   0  0  0  0  0  0  0  0  0  0  0  0
  129.3380  135.3820  160.1647 N   0  0  0  0  0  0  0  0  0  0  0  0
  129.5701  136.2346  160.5647 H   0  0  0  0  0  0  0  0  0  0  0  0
  127.9520  134.9088  160.2016 C   0  0  1  0  0  0  0  0  0  0  0  0
  127.5851  134.7721  159.1844 H   0  0  0  0  0  0  0  0  0  0  0  0
  127.8834  133.5759  160.9567 C   0  0  0  0  0  0  0  0  0  0  0  0
  126.4649  133.0165  160.8229 C   0  0  0  0  0  0  0  0  0  0  0  0
  125.4614  134.0835  161.1544 C   0  0  0  0  0  0  0  0  0  0  0  0
  124.3269  133.7434  161.4153 O   0  0  0  0  0  0  0  0  0  0  0  0
  125.7513  135.3849  161.1779 N   0  0  0  0  0  0  0  0  0  0  0  0
  127.0802  135.9309  160.9322 C   0  0  0  0  0  0  0  0  0  0  0  0
  135.4030  140.6126  158.9785 H   0  0  0  0  0  0  0  0  0  0  0  0
  136.5007  140.8403  160.3610 H   0  0  0  0  0  0  0  0  0  0  0  0
  134.8040  141.3661  160.4758 H   0  0  0  0  0  0  0  0  0  0  0  0
  135.8014  138.6780  161.1694 H   0  0  0  0  0  0  0  0  0  0  0  0
  133.1691  139.3446  159.7811 H   0  0  0  0  0  0  0  0  0  0  0  0
  134.2130  136.8655  161.4461 H   0  0  0  0  0  0  0  0  0  0  0  0
  131.5806  137.5320  160.0578 H   0  0  0  0  0  0  0  0  0  0  0  0
  132.7442  135.1711  161.7114 H   0  0  0  0  0  0  0  0  0  0  0  0
  131.0476  135.6969  161.8261 H   0  0  0  0  0  0  0  0  0  0  0  0
  132.2428  134.1788  159.6180 H   0  0  0  0  0  0  0  0  0  0  0  0
  129.0163  133.7889  158.2283 H   0  0  0  0  0  0  0  0  0  0  0  0
  131.9252  133.5381  157.8992 H   0  0  0  0  0  0  0  0  0  0  0  0
  129.4633  132.6352  156.3724 H   0  0  0  0  0  0  0  0  0  0  0  0
  131.0103  133.2770  155.7393 H   0  0  0  0  0  0  0  0  0  0  0  0
  131.1750  130.7018  155.3531 H   0  0  0  0  0  0  0  0  0  0  0  0
  131.7469  129.6702  157.5882 H   0  0  0  0  0  0  0  0  0  0  0  0
  131.9198  131.6350  159.2950 H   0  0  0  0  0  0  0  0  0  0  0  0
  130.1599  131.3797  159.0948 H   0  0  0  0  0  0  0  0  0  0  0  0
  128.5970  132.8732  160.5265 H   0  0  0  0  0  0  0  0  0  0  0  0
  128.1161  133.7379  162.0091 H   0  0  0  0  0  0  0  0  0  0  0  0
  126.3053  132.6748  159.8002 H   0  0  0  0  0  0  0  0  0  0  0  0
  126.3400  132.1782  161.5083 H   0  0  0  0  0  0  0  0  0  0  0  0
  125.0326  136.0073  161.3706 H   0  0  0  0  0  0  0  0  0  0  0  0
  127.5461  136.1870  161.8838 H   0  0  0  0  0  0  0  0  0  0  0  0
  126.9931  136.8307  160.3234 H   0  0  0  0  0  0  0  0  0  0  0  0
  1  2  1  0
  1 25  1  0
  1 26  1  0
  1 27  1  0
  2  3  2  0
  2 28  1  0
  3  4  1  0
  3 29  1  0
  4  5  2  0
  4 30  1  0
  5  6  1  0
  5 31  1  0
  6  7  1  0
  6 32  1  0
  6 33  1  0
  7 34  1  0
  8  7  1  0
  8  9  1  0
  8 15  2  0
  9 10  1  0
  9 35  1  0
 10 14  1  0
 10 11  1  0
 10 36  1  0
 11 12  1  0
 11 37  1  0
 11 38  1  0
 12 13  2  0
 12 39  1  0
 13 14  1  0
 13 40  1  0
 14 41  1  0
 14 42  1  0
 15 16  1  0
 15 17  1  0
 17 18  1  6
 17 24  1  0
 17 19  1  0
 19 20  1  0
 19 43  1  0
 19 44  1  0
 20 21  1  0
 20 45  1  0
 20 46  1  0
 21 22  2  0
 21 23  1  0
 23 24  1  0
 23 47  1  0
 24 48  1  0
 24 49  1  0
M  CHG  1  15   1
M  END
>  <DOCK_score>  (1) 
-42.096012

>  <SMILES>  (1) 
C/C=C/C=C/CNC(NC1CC=CC1)=[NH+][C@H]1CCC(=O)NC1

$$$$
