CC1Cc2ncccc2[C@H](c2cccc3ccccc23)N1C(=O)c1c[nH]nc1C1CCC[NH2+]C1
     RDKit          3D

 64 69  0  0  1  0  0  0  0  0999 V2000
  130.2260  132.7626  163.8551 C   0  0  0  0  0  0  0  0  0  0  0  0
  130.6454  134.1614  163.3980 C   0  0  1  0  0  0  0  0  0  0  0  0
  131.6554  134.0507  162.2572 C   0  0  0  0  0  0  0  0  0  0  0  0
  131.8525  135.3846  161.5845 C   0  0  0  0  0  0  0  0  0  0  0  0
  132.9611  135.5532  160.8733 N   0  0  0  0  0  0  0  0  0  0  0  0
  133.2254  136.6711  160.2336 C   0  0  0  0  0  0  0  0  0  0  0  0
  132.3414  137.7333  160.2751 C   0  0  0  0  0  0  0  0  0  0  0  0
  131.1745  137.6012  161.0082 C   0  0  0  0  0  0  0  0  0  0  0  0
  130.9369  136.4072  161.6813 C   0  0  0  0  0  0  0  0  0  0  0  0
  129.6725  136.2909  162.4922 C   0  0  2  0  0  0  0  0  0  0  0  0
  128.8229  136.6214  161.8944 H   0  0  0  0  0  0  0  0  0  0  0  0
  129.7889  137.1569  163.7201 C   0  0  0  0  0  0  0  0  0  0  0  0
  131.0070  137.3856  164.2829 C   0  0  0  0  0  0  0  0  0  0  0  0
  131.1352  138.1890  165.4141 C   0  0  0  0  0  0  0  0  0  0  0  0
  130.0445  138.7581  165.9967 C   0  0  0  0  0  0  0  0  0  0  0  0
  128.7698  138.5397  165.4479 C   0  0  0  0  0  0  0  0  0  0  0  0
  127.6206  139.1105  166.0214 C   0  0  0  0  0  0  0  0  0  0  0  0
  126.4020  138.8765  165.4625 C   0  0  0  0  0  0  0  0  0  0  0  0
  126.2745  138.0777  164.3274 C   0  0  0  0  0  0  0  0  0  0  0  0
  127.3648  137.5090  163.7446 C   0  0  0  0  0  0  0  0  0  0  0  0
  128.6401  137.7279  164.2931 C   0  0  0  0  0  0  0  0  0  0  0  0
  129.4716  134.8948  162.8965 N   0  0  0  0  0  0  0  0  0  0  0  0
  128.2614  134.3076  162.8119 C   0  0  0  0  0  0  0  0  0  0  0  0
  127.9573  133.4262  163.5924 O   0  0  0  0  0  0  0  0  0  0  0  0
  127.3064  134.7337  161.7726 C   0  0  0  0  0  0  0  0  0  0  0  0
  126.0437  135.2507  161.9823 C   0  0  0  0  0  0  0  0  0  0  0  0
  125.5105  135.5100  160.7778 N   0  0  0  0  0  0  0  0  0  0  0  0
  124.6296  135.8827  160.6161 H   0  0  0  0  0  0  0  0  0  0  0  0
  126.4376  135.1469  159.7944 N   0  0  0  0  0  0  0  0  0  0  0  0
  127.5099  134.6838  160.3753 C   0  0  0  0  0  0  0  0  0  0  0  0
  128.7488  134.1838  159.6780 C   0  0  1  0  0  0  0  0  0  0  0  0
  128.6109  132.6836  159.4033 C   0  0  0  0  0  0  0  0  0  0  0  0
  129.8392  132.2019  158.6260 C   0  0  0  0  0  0  0  0  0  0  0  0
  129.9731  133.0174  157.3382 C   0  0  0  0  0  0  0  0  0  0  0  0
  130.1281  134.4391  157.6688 N   0  0  0  0  0  0  0  0  0  0  0  0
  130.9270  134.5575  158.2738 H   0  0  0  0  0  0  0  0  0  0  0  0
  130.2684  134.9673  156.8207 H   0  0  0  0  0  0  0  0  0  0  0  0
  128.9232  134.9259  158.3513 C   0  0  0  0  0  0  0  0  0  0  0  0
  131.0938  132.2341  164.2498 H   0  0  0  0  0  0  0  0  0  0  0  0
  129.4671  132.8468  164.6329 H   0  0  0  0  0  0  0  0  0  0  0  0
  129.8186  132.2106  163.0081 H   0  0  0  0  0  0  0  0  0  0  0  0
  131.0899  134.7037  164.2325 H   0  0  0  0  0  0  0  0  0  0  0  0
  131.2916  133.3300  161.5249 H   0  0  0  0  0  0  0  0  0  0  0  0
  132.6095  133.7054  162.6554 H   0  0  0  0  0  0  0  0  0  0  0  0
  134.1424  136.7607  159.6704 H   0  0  0  0  0  0  0  0  0  0  0  0
  132.5570  138.6492  159.7451 H   0  0  0  0  0  0  0  0  0  0  0  0
  130.4634  138.4123  161.0602 H   0  0  0  0  0  0  0  0  0  0  0  0
  131.8880  136.9420  163.8430 H   0  0  0  0  0  0  0  0  0  0  0  0
  132.1140  138.3586  165.8380 H   0  0  0  0  0  0  0  0  0  0  0  0
  130.1585  139.3747  166.8761 H   0  0  0  0  0  0  0  0  0  0  0  0
  127.7042  139.7319  166.9007 H   0  0  0  0  0  0  0  0  0  0  0  0
  125.5206  139.3165  165.9050 H   0  0  0  0  0  0  0  0  0  0  0  0
  125.2956  137.9079  163.9037 H   0  0  0  0  0  0  0  0  0  0  0  0
  127.2508  136.8930  162.8648 H   0  0  0  0  0  0  0  0  0  0  0  0
  125.5726  135.4182  162.9395 H   0  0  0  0  0  0  0  0  0  0  0  0
  129.6186  134.3594  160.3111 H   0  0  0  0  0  0  0  0  0  0  0  0
  128.5432  132.1447  160.3483 H   0  0  0  0  0  0  0  0  0  0  0  0
  127.7114  132.5020  158.8150 H   0  0  0  0  0  0  0  0  0  0  0  0
  130.7321  132.3364  159.2365 H   0  0  0  0  0  0  0  0  0  0  0  0
  129.7225  131.1469  158.3782 H   0  0  0  0  0  0  0  0  0  0  0  0
  130.8467  132.6769  156.7822 H   0  0  0  0  0  0  0  0  0  0  0  0
  129.0797  132.8824  156.7285 H   0  0  0  0  0  0  0  0  0  0  0  0
  128.0523  134.7498  157.7198 H   0  0  0  0  0  0  0  0  0  0  0  0
  129.0215  135.9943  158.5432 H   0  0  0  0  0  0  0  0  0  0  0  0
  1  2  1  0
  1 39  1  0
  1 40  1  0
  1 41  1  0
  2 22  1  0
  2  3  1  0
  2 42  1  1
  3  4  1  0
  3 43  1  0
  3 44  1  0
  4  9  2  0
  4  5  1  0
  5  6  2  0
  6  7  1  0
  6 45  1  0
  7  8  2  0
  7 46  1  0
  8  9  1  0
  8 47  1  0
  9 10  1  0
 10 11  1  6
 10 12  1  0
 10 22  1  0
 12 21  1  0
 12 13  2  0
 13 14  1  0
 13 48  1  0
 14 15  2  0
 14 49  1  0
 15 16  1  0
 15 50  1  0
 16 21  2  0
 16 17  1  0
 17 18  2  0
 17 51  1  0
 18 19  1  0
 18 52  1  0
 19 20  2  0
 19 53  1  0
 20 21  1  0
 20 54  1  0
 22 23  1  0
 23 24  2  0
 23 25  1  0
 25 30  1  0
 25 26  2  0
 26 27  1  0
 26 55  1  0
 27 28  1  0
 27 29  1  0
 29 30  2  0
 30 31  1  0
 31 38  1  0
 31 32  1  0
 31 56  1  1
 32 33  1  0
 32 57  1  0
 32 58  1  0
 33 34  1  0
 33 59  1  0
 33 60  1  0
 34 35  1  0
 34 61  1  0
 34 62  1  0
 35 36  1  0
 35 37  1  0
 35 38  1  0
 38 63  1  0
 38 64  1  0
M  CHG  1  35   1
M  END
>  <DOCK_score>  (1) 
-41.698669

>  <SMILES>  (1) 
CC1Cc2ncccc2[C@H](c2cccc3ccccc23)N1C(=O)c1c[nH]nc1C1CCC[NH2+]C1

$$$$
