CCc1ccc(-c2ccc3c(c2)C[C@@H]([NH+]=C(NC2CC=CC2)N[C@H]2CCC(=O)NC2)C3)cc1
     RDKit          3D

 68 72  0  0  1  0  0  0  0  0999 V2000
  135.7131  142.6554  166.4512 C   0  0  0  0  0  0  0  0  0  0  0  0
  136.8056  141.9426  165.6517 C   0  0  0  0  0  0  0  0  0  0  0  0
  136.2331  140.7043  165.0113 C   0  0  0  0  0  0  0  0  0  0  0  0
  135.6766  140.7779  163.7465 C   0  0  0  0  0  0  0  0  0  0  0  0
  135.1507  139.6473  163.1545 C   0  0  0  0  0  0  0  0  0  0  0  0
  135.1805  138.4308  163.8332 C   0  0  0  0  0  0  0  0  0  0  0  0
  134.6162  137.2121  163.2022 C   0  0  0  0  0  0  0  0  0  0  0  0
  135.1428  135.9582  163.5064 C   0  0  0  0  0  0  0  0  0  0  0  0
  134.6128  134.8306  162.9164 C   0  0  0  0  0  0  0  0  0  0  0  0
  133.5589  134.9370  162.0220 C   0  0  0  0  0  0  0  0  0  0  0  0
  133.0324  136.1793  161.7166 C   0  0  0  0  0  0  0  0  0  0  0  0
  133.5579  137.3155  162.3040 C   0  0  0  0  0  0  0  0  0  0  0  0
  131.8996  136.0248  160.7243 C   0  0  0  0  0  0  0  0  0  0  0  0
  131.5044  134.5344  160.7911 C   0  0  1  0  0  0  0  0  0  0  0  0
  130.7087  134.3737  161.5186 H   0  0  0  0  0  0  0  0  0  0  0  0
  131.1065  134.0414  159.4702 N   0  0  0  0  0  0  0  0  0  0  0  0
  131.7704  133.6602  158.8747 H   0  0  0  0  0  0  0  0  0  0  0  0
  129.8604  134.1151  159.0953 C   0  0  0  0  0  0  0  0  0  0  0  0
  129.4868  133.6526  157.8558 N   0  0  0  0  0  0  0  0  0  0  0  0
  130.4894  133.0767  156.9561 C   0  0  0  0  0  0  0  0  0  0  0  0
  130.0133  133.1322  155.4859 C   0  0  0  0  0  0  0  0  0  0  0  0
  130.5089  131.8432  154.8727 C   0  0  0  0  0  0  0  0  0  0  0  0
  130.8414  130.9814  155.7949 C   0  0  0  0  0  0  0  0  0  0  0  0
  130.6230  131.5520  157.1769 C   0  0  0  0  0  0  0  0  0  0  0  0
  128.9195  134.6556  159.9396 N   0  0  0  0  0  0  0  0  0  0  0  0
  127.5310  134.1919  159.8820 C   0  0  1  0  0  0  0  0  0  0  0  0
  127.1254  134.3744  158.8869 H   0  0  0  0  0  0  0  0  0  0  0  0
  127.4762  132.6919  160.1962 C   0  0  0  0  0  0  0  0  0  0  0  0
  126.0482  132.1981  159.9510 C   0  0  0  0  0  0  0  0  0  0  0  0
  125.0681  133.1114  160.6295 C   0  0  0  0  0  0  0  0  0  0  0  0
  123.9402  132.7065  160.8158 O   0  0  0  0  0  0  0  0  0  0  0  0
  125.3716  134.3440  161.0383 N   0  0  0  0  0  0  0  0  0  0  0  0
  126.6963  134.9408  160.9216 C   0  0  0  0  0  0  0  0  0  0  0  0
  132.8149  133.8643  161.2550 C   0  0  0  0  0  0  0  0  0  0  0  0
  135.7371  138.3640  165.1089 C   0  0  0  0  0  0  0  0  0  0  0  0
  136.2648  139.4997  165.6890 C   0  0  0  0  0  0  0  0  0  0  0  0
  135.3347  141.9875  167.2250 H   0  0  0  0  0  0  0  0  0  0  0  0
  136.1276  143.5506  166.9146 H   0  0  0  0  0  0  0  0  0  0  0  0
  134.8986  142.9359  165.7833 H   0  0  0  0  0  0  0  0  0  0  0  0
  137.6201  141.6619  166.3195 H   0  0  0  0  0  0  0  0  0  0  0  0
  137.1839  142.6104  164.8778 H   0  0  0  0  0  0  0  0  0  0  0  0
  135.6544  141.7213  163.2211 H   0  0  0  0  0  0  0  0  0  0  0  0
  134.7166  139.7056  162.1674 H   0  0  0  0  0  0  0  0  0  0  0  0
  135.9636  135.8700  164.2028 H   0  0  0  0  0  0  0  0  0  0  0  0
  135.0210  133.8589  163.1518 H   0  0  0  0  0  0  0  0  0  0  0  0
  133.1464  138.2852  162.0652 H   0  0  0  0  0  0  0  0  0  0  0  0
  132.2384  136.2815  159.7206 H   0  0  0  0  0  0  0  0  0  0  0  0
  131.0566  136.6530  161.0119 H   0  0  0  0  0  0  0  0  0  0  0  0
  128.5595  133.7074  157.5768 H   0  0  0  0  0  0  0  0  0  0  0  0
  131.4515  133.5751  157.0755 H   0  0  0  0  0  0  0  0  0  0  0  0
  128.9253  133.1805  155.4407 H   0  0  0  0  0  0  0  0  0  0  0  0
  130.4538  133.9891  154.9762 H   0  0  0  0  0  0  0  0  0  0  0  0
  130.5790  131.6591  153.8108 H   0  0  0  0  0  0  0  0  0  0  0  0
  131.2228  129.9906  155.5964 H   0  0  0  0  0  0  0  0  0  0  0  0
  131.4781  131.3345  157.8169 H   0  0  0  0  0  0  0  0  0  0  0  0
  129.7088  131.1501  157.6137 H   0  0  0  0  0  0  0  0  0  0  0  0
  129.1748  135.3442  160.5733 H   0  0  0  0  0  0  0  0  0  0  0  0
  128.1668  132.1553  159.5458 H   0  0  0  0  0  0  0  0  0  0  0  0
  127.7482  132.5252  161.2385 H   0  0  0  0  0  0  0  0  0  0  0  0
  125.8487  132.1849  158.8795 H   0  0  0  0  0  0  0  0  0  0  0  0
  125.9397  131.1904  160.3520 H   0  0  0  0  0  0  0  0  0  0  0  0
  124.6677  134.8753  161.4422 H   0  0  0  0  0  0  0  0  0  0  0  0
  126.5964  135.9835  160.6202 H   0  0  0  0  0  0  0  0  0  0  0  0
  127.2000  134.8915  161.8870 H   0  0  0  0  0  0  0  0  0  0  0  0
  132.5970  133.0168  161.9048 H   0  0  0  0  0  0  0  0  0  0  0  0
  133.3996  133.5409  160.3938 H   0  0  0  0  0  0  0  0  0  0  0  0
  135.7590  137.4245  165.6410 H   0  0  0  0  0  0  0  0  0  0  0  0
  136.7000  139.4482  166.6762 H   0  0  0  0  0  0  0  0  0  0  0  0
  1  2  1  0
  1 37  1  0
  1 38  1  0
  1 39  1  0
  2  3  1  0
  2 40  1  0
  2 41  1  0
  3 36  2  0
  3  4  1  0
  4  5  2  0
  4 42  1  0
  5  6  1  0
  5 43  1  0
  6  7  1  0
  6 35  2  0
  7 12  1  0
  7  8  2  0
  8  9  1  0
  8 44  1  0
  9 10  2  0
  9 45  1  0
 10 34  1  0
 10 11  1  0
 11 12  2  0
 11 13  1  0
 12 46  1  0
 13 14  1  0
 13 47  1  0
 13 48  1  0
 14 15  1  1
 14 16  1  0
 14 34  1  0
 16 17  1  0
 18 16  2  0
 18 19  1  0
 18 25  1  0
 19 20  1  0
 19 49  1  0
 20 24  1  0
 20 21  1  0
 20 50  1  0
 21 22  1  0
 21 51  1  0
 21 52  1  0
 22 23  2  0
 22 53  1  0
 23 24  1  0
 23 54  1  0
 24 55  1  0
 24 56  1  0
 25 26  1  0
 25 57  1  0
 26 27  1  6
 26 33  1  0
 26 28  1  0
 28 29  1  0
 28 58  1  0
 28 59  1  0
 29 30  1  0
 29 60  1  0
 29 61  1  0
 30 31  2  0
 30 32  1  0
 32 33  1  0
 32 62  1  0
 33 63  1  0
 33 64  1  0
 34 65  1  0
 34 66  1  0
 35 36  1  0
 35 67  1  0
 36 68  1  0
M  CHG  1  16   1
M  END
>  <DOCK_score>  (1) 
-43.710789

>  <SMILES>  (1) 
CCc1ccc(-c2ccc3c(c2)C[C@@H]([NH+]=C(NC2CC=CC2)N[C@H]2CCC(=O)NC2)C3)cc1

$$$$
