C=Cc1ccc(Nc2ccc(-c3n[nH]cc3C[NH2+]Cc3c[nH]nc3C)o2)cc1
     RDKit          3D

 51 54  0  0  0  0  0  0  0  0999 V2000
  130.9065  140.3246  165.1646 C   0  0  0  0  0  0  0  0  0  0  0  0
  129.9747  140.6811  164.2908 C   0  0  0  0  0  0  0  0  0  0  0  0
  129.1110  139.6546  163.6718 C   0  0  0  0  0  0  0  0  0  0  0  0
  129.1047  139.4891  162.2854 C   0  0  0  0  0  0  0  0  0  0  0  0
  128.2979  138.5313  161.7109 C   0  0  0  0  0  0  0  0  0  0  0  0
  127.4899  137.7300  162.5107 C   0  0  0  0  0  0  0  0  0  0  0  0
  126.6732  136.7615  161.9260 N   0  0  0  0  0  0  0  0  0  0  0  0
  127.2375  135.7408  161.1697 C   0  0  0  0  0  0  0  0  0  0  0  0
  126.5575  134.7397  160.5566 C   0  0  0  0  0  0  0  0  0  0  0  0
  127.5114  133.9332  159.9060 C   0  0  0  0  0  0  0  0  0  0  0  0
  128.7289  134.4841  160.1554 C   0  0  0  0  0  0  0  0  0  0  0  0
  130.0267  133.9714  159.6696 C   0  0  0  0  0  0  0  0  0  0  0  0
  130.2071  132.9051  158.9153 N   0  0  0  0  0  0  0  0  0  0  0  0
  131.5803  132.7700  158.6750 N   0  0  0  0  0  0  0  0  0  0  0  0
  131.9996  132.0717  158.1484 H   0  0  0  0  0  0  0  0  0  0  0  0
  132.2198  133.7803  159.3032 C   0  0  0  0  0  0  0  0  0  0  0  0
  131.2926  134.5393  159.9257 C   0  0  0  0  0  0  0  0  0  0  0  0
  131.5620  135.7737  160.7470 C   0  0  0  0  0  0  0  0  0  0  0  0
  132.5235  136.6313  160.0413 N   0  0  0  0  0  0  0  0  0  0  0  0
  133.3854  136.1257  159.9013 H   0  0  0  0  0  0  0  0  0  0  0  0
  132.1417  136.8992  159.1467 H   0  0  0  0  0  0  0  0  0  0  0  0
  132.7861  137.8345  160.8421 C   0  0  0  0  0  0  0  0  0  0  0  0
  133.7724  138.7142  160.1181 C   0  0  0  0  0  0  0  0  0  0  0  0
  134.3438  138.4514  158.9199 C   0  0  0  0  0  0  0  0  0  0  0  0
  135.1609  139.4823  158.6188 N   0  0  0  0  0  0  0  0  0  0  0  0
  135.7005  139.5675  157.8173 H   0  0  0  0  0  0  0  0  0  0  0  0
  135.0962  140.4051  159.6707 N   0  0  0  0  0  0  0  0  0  0  0  0
  134.2639  139.9439  160.5686 C   0  0  0  0  0  0  0  0  0  0  0  0
  133.8975  140.6206  161.8643 C   0  0  0  0  0  0  0  0  0  0  0  0
  128.5494  135.5761  160.9275 O   0  0  0  0  0  0  0  0  0  0  0  0
  127.4900  137.8961  163.8915 C   0  0  0  0  0  0  0  0  0  0  0  0
  128.2992  138.8485  164.4720 C   0  0  0  0  0  0  0  0  0  0  0  0
  131.4757  141.0802  165.6854 H   0  0  0  0  0  0  0  0  0  0  0  0
  131.0960  139.2786  165.3553 H   0  0  0  0  0  0  0  0  0  0  0  0
  129.8471  141.7218  164.0316 H   0  0  0  0  0  0  0  0  0  0  0  0
  129.7315  140.1114  161.6640 H   0  0  0  0  0  0  0  0  0  0  0  0
  128.2927  138.4028  160.6387 H   0  0  0  0  0  0  0  0  0  0  0  0
  125.7115  136.8005  162.0474 H   0  0  0  0  0  0  0  0  0  0  0  0
  125.4881  134.5895  160.5660 H   0  0  0  0  0  0  0  0  0  0  0  0
  127.3135  133.0474  159.3207 H   0  0  0  0  0  0  0  0  0  0  0  0
  133.2860  133.9517  159.3065 H   0  0  0  0  0  0  0  0  0  0  0  0
  130.6308  136.3197  160.8983 H   0  0  0  0  0  0  0  0  0  0  0  0
  131.9745  135.4841  161.7135 H   0  0  0  0  0  0  0  0  0  0  0  0
  131.8550  138.3807  160.9932 H   0  0  0  0  0  0  0  0  0  0  0  0
  133.1985  137.5450  161.8086 H   0  0  0  0  0  0  0  0  0  0  0  0
  134.1742  137.5748  158.3122 H   0  0  0  0  0  0  0  0  0  0  0  0
  134.5845  140.3012  162.6480 H   0  0  0  0  0  0  0  0  0  0  0  0
  133.9640  141.7015  161.7411 H   0  0  0  0  0  0  0  0  0  0  0  0
  132.8789  140.3485  162.1410 H   0  0  0  0  0  0  0  0  0  0  0  0
  126.8582  137.2757  164.5097 H   0  0  0  0  0  0  0  0  0  0  0  0
  128.3018  138.9743  165.5447 H   0  0  0  0  0  0  0  0  0  0  0  0
  1  2  2  0
  1 33  1  0
  1 34  1  0
  2  3  1  0
  2 35  1  0
  3 32  2  0
  3  4  1  0
  4  5  2  0
  4 36  1  0
  5  6  1  0
  5 37  1  0
  6  7  1  0
  6 31  2  0
  7  8  1  0
  7 38  1  0
  8 30  1  0
  8  9  2  0
  9 10  1  0
  9 39  1  0
 10 11  2  0
 10 40  1  0
 11 12  1  0
 11 30  1  0
 12 17  1  0
 12 13  2  0
 13 14  1  0
 14 15  1  0
 14 16  1  0
 16 17  2  0
 16 41  1  0
 17 18  1  0
 18 19  1  0
 18 42  1  0
 18 43  1  0
 19 20  1  0
 19 21  1  0
 19 22  1  0
 22 23  1  0
 22 44  1  0
 22 45  1  0
 23 28  1  0
 23 24  2  0
 24 25  1  0
 24 46  1  0
 25 26  1  0
 25 27  1  0
 27 28  2  0
 28 29  1  0
 29 47  1  0
 29 48  1  0
 29 49  1  0
 31 32  1  0
 31 50  1  0
 32 51  1  0
M  CHG  1  19   1
M  END
>  <DOCK_score>  (1) 
-48.186104

>  <SMILES>  (1) 
C=Cc1ccc(Nc2ccc(-c3n[nH]cc3C[NH2+]Cc3c[nH]nc3C)o2)cc1

$$$$
