CCc1ccc(-c2c[nH]c(N[C@@H](C)c3cccc(C)c3)[nH+]2)cc1
     RDKit          3D

 47 49  0  0  1  0  0  0  0  0999 V2000
  129.7291  128.6980  150.7368 C   0  0  0  0  0  0  0  0  0  0  0  0
  130.9323  129.6110  150.9808 C   0  0  0  0  0  0  0  0  0  0  0  0
  130.8224  130.2320  152.3495 C   0  0  0  0  0  0  0  0  0  0  0  0
  131.3786  129.5930  153.4424 C   0  0  0  0  0  0  0  0  0  0  0  0
  131.2861  130.1597  154.6974 C   0  0  0  0  0  0  0  0  0  0  0  0
  130.6205  131.3728  154.8639 C   0  0  0  0  0  0  0  0  0  0  0  0
  130.5129  131.9842  156.2111 C   0  0  0  0  0  0  0  0  0  0  0  0
  129.9260  131.4234  157.2975 C   0  0  0  0  0  0  0  0  0  0  0  0
  130.0497  132.3244  158.3270 N   0  0  0  0  0  0  0  0  0  0  0  0
  129.7264  132.2081  159.2341 H   0  0  0  0  0  0  0  0  0  0  0  0
  130.7093  133.4103  157.8393 C   0  0  0  0  0  0  0  0  0  0  0  0
  131.0356  134.5463  158.5601 N   0  0  0  0  0  0  0  0  0  0  0  0
  130.6662  134.6479  159.9741 C   0  0  1  0  0  0  0  0  0  0  0  0
  130.8223  133.6850  160.4604 H   0  0  0  0  0  0  0  0  0  0  0  0
  131.5344  135.7090  160.6530 C   0  0  0  0  0  0  0  0  0  0  0  0
  129.2152  135.0385  160.0874 C   0  0  0  0  0  0  0  0  0  0  0  0
  128.4620  135.2393  158.9454 C   0  0  0  0  0  0  0  0  0  0  0  0
  127.1312  135.5975  159.0493 C   0  0  0  0  0  0  0  0  0  0  0  0
  126.5528  135.7548  160.2945 C   0  0  0  0  0  0  0  0  0  0  0  0
  127.3053  135.5527  161.4368 C   0  0  0  0  0  0  0  0  0  0  0  0
  126.6746  135.7232  162.7948 C   0  0  0  0  0  0  0  0  0  0  0  0
  128.6356  135.1906  161.3329 C   0  0  0  0  0  0  0  0  0  0  0  0
  130.9895  133.2009  156.5762 N   0  0  0  0  0  0  0  0  0  0  0  0
  131.4603  133.8182  155.9946 H   0  0  0  0  0  0  0  0  0  0  0  0
  130.0569  132.0098  153.7598 C   0  0  0  0  0  0  0  0  0  0  0  0
  130.1605  131.4367  152.5085 C   0  0  0  0  0  0  0  0  0  0  0  0
  128.8109  129.2820  150.7983 H   0  0  0  0  0  0  0  0  0  0  0  0
  129.8085  128.2490  149.7468 H   0  0  0  0  0  0  0  0  0  0  0  0
  129.7111  127.9121  151.4919 H   0  0  0  0  0  0  0  0  0  0  0  0
  131.8502  129.0276  150.9189 H   0  0  0  0  0  0  0  0  0  0  0  0
  130.9500  130.3976  150.2254 H   0  0  0  0  0  0  0  0  0  0  0  0
  131.8900  128.6506  153.3130 H   0  0  0  0  0  0  0  0  0  0  0  0
  131.7248  129.6620  155.5496 H   0  0  0  0  0  0  0  0  0  0  0  0
  129.4518  130.4542  157.3441 H   0  0  0  0  0  0  0  0  0  0  0  0
  131.5092  135.2749  158.1289 H   0  0  0  0  0  0  0  0  0  0  0  0
  131.2596  135.7846  161.7052 H   0  0  0  0  0  0  0  0  0  0  0  0
  132.5841  135.4265  160.5712 H   0  0  0  0  0  0  0  0  0  0  0  0
  131.3784  136.6719  160.1667 H   0  0  0  0  0  0  0  0  0  0  0  0
  128.9139  135.1166  157.9721 H   0  0  0  0  0  0  0  0  0  0  0  0
  126.5432  135.7548  158.1571 H   0  0  0  0  0  0  0  0  0  0  0  0
  125.5128  136.0340  160.3762 H   0  0  0  0  0  0  0  0  0  0  0  0
  126.2557  134.7718  163.1227 H   0  0  0  0  0  0  0  0  0  0  0  0
  127.4305  136.0525  163.5078 H   0  0  0  0  0  0  0  0  0  0  0  0
  125.8814  136.4684  162.7361 H   0  0  0  0  0  0  0  0  0  0  0  0
  129.2226  135.0294  162.2250 H   0  0  0  0  0  0  0  0  0  0  0  0
  129.5398  132.9500  153.8831 H   0  0  0  0  0  0  0  0  0  0  0  0
  129.7238  131.9293  151.6523 H   0  0  0  0  0  0  0  0  0  0  0  0
  1  2  1  0
  1 27  1  0
  1 28  1  0
  1 29  1  0
  2  3  1  0
  2 30  1  0
  2 31  1  0
  3 26  2  0
  3  4  1  0
  4  5  2  0
  4 32  1  0
  5  6  1  0
  5 33  1  0
  6  7  1  0
  6 25  2  0
  7 23  1  0
  7  8  2  0
  8  9  1  0
  8 34  1  0
  9 10  1  0
  9 11  1  0
 11 12  1  0
 11 23  2  0
 12 13  1  0
 12 35  1  0
 13 14  1  1
 13 15  1  0
 13 16  1  0
 15 36  1  0
 15 37  1  0
 15 38  1  0
 16 22  1  0
 16 17  2  0
 17 18  1  0
 17 39  1  0
 18 19  2  0
 18 40  1  0
 19 20  1  0
 19 41  1  0
 20 21  1  0
 20 22  2  0
 21 42  1  0
 21 43  1  0
 21 44  1  0
 22 45  1  0
 23 24  1  0
 25 26  1  0
 25 46  1  0
 26 47  1  0
M  CHG  1  23   1
M  END
>  <DOCK_score>  (1) 
-56.011295

>  <SMILES>  (1) 
CCc1ccc(-c2c[nH]c(N[C@@H](C)c3cccc(C)c3)[nH+]2)cc1

$$$$
