Clc1ccccc1[C@H](c1ccccc1)[NH+]1CCN(c2ccccc2Cc2ccccc2)CC1
     RDKit          3D

 63 67  0  0  1  0  0  0  0  0999 V2000
  130.3946  132.5100  162.0579 Cl  0  0  0  0  0  0  0  0  0  0  0  0
  130.8141  132.3648  160.3796 C   0  0  0  0  0  0  0  0  0  0  0  0
  131.3105  131.1692  159.8912 C   0  0  0  0  0  0  0  0  0  0  0  0
  131.6438  131.0540  158.5549 C   0  0  0  0  0  0  0  0  0  0  0  0
  131.4818  132.1335  157.7063 C   0  0  0  0  0  0  0  0  0  0  0  0
  130.9805  133.3264  158.1925 C   0  0  0  0  0  0  0  0  0  0  0  0
  130.6517  133.4442  159.5299 C   0  0  0  0  0  0  0  0  0  0  0  0
  130.1107  134.7466  160.0610 C   0  0  2  0  0  0  0  0  0  0  0  0
  129.9065  134.6476  161.1271 H   0  0  0  0  0  0  0  0  0  0  0  0
  128.8363  135.0942  159.3356 C   0  0  0  0  0  0  0  0  0  0  0  0
  127.6207  134.6513  159.8226 C   0  0  0  0  0  0  0  0  0  0  0  0
  126.4515  134.9740  159.1597 C   0  0  0  0  0  0  0  0  0  0  0  0
  126.4986  135.7315  158.0043 C   0  0  0  0  0  0  0  0  0  0  0  0
  127.7144  136.1705  157.5146 C   0  0  0  0  0  0  0  0  0  0  0  0
  128.8833  135.8515  158.1800 C   0  0  0  0  0  0  0  0  0  0  0  0
  131.1006  135.8111  159.8488 N   0  0  0  0  0  0  0  0  0  0  0  0
  131.2894  135.9027  158.8619 H   0  0  0  0  0  0  0  0  0  0  0  0
  130.5729  137.0804  160.3661 C   0  0  0  0  0  0  0  0  0  0  0  0
  131.5960  138.1932  160.1284 C   0  0  0  0  0  0  0  0  0  0  0  0
  132.8535  137.8521  160.8087 N   0  0  0  0  0  0  0  0  0  0  0  0
  133.7962  138.8717  160.6589 C   0  0  0  0  0  0  0  0  0  0  0  0
  134.2200  139.2473  159.3902 C   0  0  0  0  0  0  0  0  0  0  0  0
  135.1556  140.2524  159.2459 C   0  0  0  0  0  0  0  0  0  0  0  0
  135.6674  140.8885  160.3624 C   0  0  0  0  0  0  0  0  0  0  0  0
  135.2439  140.5207  161.6263 C   0  0  0  0  0  0  0  0  0  0  0  0
  134.3078  139.5164  161.7776 C   0  0  0  0  0  0  0  0  0  0  0  0
  133.8469  139.1162  163.1555 C   0  0  0  0  0  0  0  0  0  0  0  0
  135.0273  138.6375  163.9608 C   0  0  0  0  0  0  0  0  0  0  0  0
  135.1933  139.0645  165.2650 C   0  0  0  0  0  0  0  0  0  0  0  0
  136.2793  138.6298  166.0016 C   0  0  0  0  0  0  0  0  0  0  0  0
  137.1932  137.7592  165.4377 C   0  0  0  0  0  0  0  0  0  0  0  0
  137.0274  137.3325  164.1335 C   0  0  0  0  0  0  0  0  0  0  0  0
  135.9443  137.7714  163.3950 C   0  0  0  0  0  0  0  0  0  0  0  0
  133.3810  136.5708  160.3188 C   0  0  0  0  0  0  0  0  0  0  0  0
  132.3431  135.4714  160.5549 C   0  0  0  0  0  0  0  0  0  0  0  0
  131.4371  130.3259  160.5539 H   0  0  0  0  0  0  0  0  0  0  0  0
  132.0314  130.1208  158.1736 H   0  0  0  0  0  0  0  0  0  0  0  0
  131.7430  132.0433  156.6622 H   0  0  0  0  0  0  0  0  0  0  0  0
  130.8496  134.1676  157.5281 H   0  0  0  0  0  0  0  0  0  0  0  0
  127.5844  134.0560  160.7231 H   0  0  0  0  0  0  0  0  0  0  0  0
  125.5016  134.6313  159.5423 H   0  0  0  0  0  0  0  0  0  0  0  0
  125.5853  135.9808  157.4845 H   0  0  0  0  0  0  0  0  0  0  0  0
  127.7512  136.7623  156.6119 H   0  0  0  0  0  0  0  0  0  0  0  0
  129.8334  136.1942  157.7972 H   0  0  0  0  0  0  0  0  0  0  0  0
  130.3810  136.9855  161.4348 H   0  0  0  0  0  0  0  0  0  0  0  0
  129.6440  137.3247  159.8505 H   0  0  0  0  0  0  0  0  0  0  0  0
  131.2109  139.1323  160.5255 H   0  0  0  0  0  0  0  0  0  0  0  0
  131.7781  138.2980  159.0589 H   0  0  0  0  0  0  0  0  0  0  0  0
  133.8207  138.7510  158.5180 H   0  0  0  0  0  0  0  0  0  0  0  0
  135.4885  140.5420  158.2601 H   0  0  0  0  0  0  0  0  0  0  0  0
  136.3991  141.6743  160.2467 H   0  0  0  0  0  0  0  0  0  0  0  0
  135.6452  141.0197  162.4959 H   0  0  0  0  0  0  0  0  0  0  0  0
  133.1130  138.3145  163.0746 H   0  0  0  0  0  0  0  0  0  0  0  0
  133.3937  139.9751  163.6506 H   0  0  0  0  0  0  0  0  0  0  0  0
  134.4771  139.7414  165.7068 H   0  0  0  0  0  0  0  0  0  0  0  0
  136.4114  138.9669  167.0191 H   0  0  0  0  0  0  0  0  0  0  0  0
  138.0391  137.4161  166.0148 H   0  0  0  0  0  0  0  0  0  0  0  0
  137.7437  136.6558  163.6914 H   0  0  0  0  0  0  0  0  0  0  0  0
  135.8147  137.4380  162.3761 H   0  0  0  0  0  0  0  0  0  0  0  0
  133.5924  136.6484  159.2522 H   0  0  0  0  0  0  0  0  0  0  0  0
  134.2981  136.3263  160.8547 H   0  0  0  0  0  0  0  0  0  0  0  0
  132.1422  135.3848  161.6227 H   0  0  0  0  0  0  0  0  0  0  0  0
  132.7268  134.5228  160.1792 H   0  0  0  0  0  0  0  0  0  0  0  0
  1  2  1  0
  2  7  2  0
  2  3  1  0
  3  4  2  0
  3 36  1  0
  4  5  1  0
  4 37  1  0
  5  6  2  0
  5 38  1  0
  6  7  1  0
  6 39  1  0
  7  8  1  0
  8  9  1  1
  8 10  1  0
  8 16  1  0
 10 15  1  0
 10 11  2  0
 11 12  1  0
 11 40  1  0
 12 13  2  0
 12 41  1  0
 13 14  1  0
 13 42  1  0
 14 15  2  0
 14 43  1  0
 15 44  1  0
 16 17  1  0
 16 35  1  0
 16 18  1  0
 18 19  1  0
 18 45  1  0
 18 46  1  0
 19 20  1  0
 19 47  1  0
 19 48  1  0
 20 21  1  0
 20 34  1  0
 21 26  1  0
 21 22  2  0
 22 23  1  0
 22 49  1  0
 23 24  2  0
 23 50  1  0
 24 25  1  0
 24 51  1  0
 25 26  2  0
 25 52  1  0
 26 27  1  0
 27 28  1  0
 27 53  1  0
 27 54  1  0
 28 33  1  0
 28 29  2  0
 29 30  1  0
 29 55  1  0
 30 31  2  0
 30 56  1  0
 31 32  1  0
 31 57  1  0
 32 33  2  0
 32 58  1  0
 33 59  1  0
 34 35  1  0
 34 60  1  0
 34 61  1  0
 35 62  1  0
 35 63  1  0
M  CHG  1  16   1
M  END
>  <DOCK_score>  (1) 
-60.146656

>  <SMILES>  (1) 
Clc1ccccc1[C@H](c1ccccc1)[NH+]1CCN(c2ccccc2Cc2ccccc2)CC1

$$$$
