COC[C@H](Nc1[nH]cc(-c2ccc(N)cc2)[nH+]1)c1ccc(F)cc1
     RDKit          3D

 44 46  0  0  1  0  0  0  0  0999 V2000
  130.4111  138.9243  159.9851 C   0  0  0  0  0  0  0  0  0  0  0  0
  130.0358  137.6283  159.5145 O   0  0  0  0  0  0  0  0  0  0  0  0
  129.4613  136.7892  160.5185 C   0  0  0  0  0  0  0  0  0  0  0  0
  129.0997  135.4347  159.9056 C   0  0  2  0  0  0  0  0  0  0  0  0
  129.0025  134.6920  160.6974 H   0  0  0  0  0  0  0  0  0  0  0  0
  130.1544  135.0221  158.9762 N   0  0  0  0  0  0  0  0  0  0  0  0
  130.0472  133.8208  158.2965 C   0  0  0  0  0  0  0  0  0  0  0  0
  129.4049  132.7094  158.7481 N   0  0  0  0  0  0  0  0  0  0  0  0
  128.9441  132.6169  159.5965 H   0  0  0  0  0  0  0  0  0  0  0  0
  129.5302  131.7418  157.7794 C   0  0  0  0  0  0  0  0  0  0  0  0
  130.2447  132.2902  156.7659 C   0  0  0  0  0  0  0  0  0  0  0  0
  130.6280  131.6139  155.5023 C   0  0  0  0  0  0  0  0  0  0  0  0
  130.1977  132.1250  154.2787 C   0  0  0  0  0  0  0  0  0  0  0  0
  130.5597  131.4977  153.1052 C   0  0  0  0  0  0  0  0  0  0  0  0
  131.3432  130.3504  153.1423 C   0  0  0  0  0  0  0  0  0  0  0  0
  131.7036  129.7140  151.9522 N   0  0  0  0  0  0  0  0  0  0  0  0
  131.7689  129.8361  154.3614 C   0  0  0  0  0  0  0  0  0  0  0  0
  131.4142  130.4634  155.5370 C   0  0  0  0  0  0  0  0  0  0  0  0
  130.5428  133.5682  157.1096 N   0  0  0  0  0  0  0  0  0  0  0  0
  131.0447  134.1946  156.5648 H   0  0  0  0  0  0  0  0  0  0  0  0
  127.7937  135.5518  159.1632 C   0  0  0  0  0  0  0  0  0  0  0  0
  126.6015  135.3128  159.8211 C   0  0  0  0  0  0  0  0  0  0  0  0
  125.4030  135.4199  159.1414 C   0  0  0  0  0  0  0  0  0  0  0  0
  125.3965  135.7667  157.8010 C   0  0  0  0  0  0  0  0  0  0  0  0
  124.2255  135.8713  157.1354 F   0  0  0  0  0  0  0  0  0  0  0  0
  126.5915  136.0008  157.1418 C   0  0  0  0  0  0  0  0  0  0  0  0
  127.7884  135.8987  157.8251 C   0  0  0  0  0  0  0  0  0  0  0  0
  130.8386  139.4993  159.1637 H   0  0  0  0  0  0  0  0  0  0  0  0
  129.5313  139.4397  160.3702 H   0  0  0  0  0  0  0  0  0  0  0  0
  131.1496  138.8224  160.7803 H   0  0  0  0  0  0  0  0  0  0  0  0
  128.5618  137.2603  160.9147 H   0  0  0  0  0  0  0  0  0  0  0  0
  130.1803  136.6429  161.3247 H   0  0  0  0  0  0  0  0  0  0  0  0
  130.9280  135.5907  158.8371 H   0  0  0  0  0  0  0  0  0  0  0  0
  129.1353  130.7374  157.8184 H   0  0  0  0  0  0  0  0  0  0  0  0
  129.5848  133.0136  154.2498 H   0  0  0  0  0  0  0  0  0  0  0  0
  130.2303  131.8958  152.1569 H   0  0  0  0  0  0  0  0  0  0  0  0
  132.2509  128.9127  151.9776 H   0  0  0  0  0  0  0  0  0  0  0  0
  131.4072  130.0716  151.1015 H   0  0  0  0  0  0  0  0  0  0  0  0
  132.3778  128.9446  154.3879 H   0  0  0  0  0  0  0  0  0  0  0  0
  131.7455  130.0637  156.4842 H   0  0  0  0  0  0  0  0  0  0  0  0
  126.6068  135.0425  160.8668 H   0  0  0  0  0  0  0  0  0  0  0  0
  124.4718  135.2335  159.6556 H   0  0  0  0  0  0  0  0  0  0  0  0
  126.5879  136.2675  156.0952 H   0  0  0  0  0  0  0  0  0  0  0  0
  128.7203  136.0859  157.3123 H   0  0  0  0  0  0  0  0  0  0  0  0
  1  2  1  0
  1 28  1  0
  1 29  1  0
  1 30  1  0
  2  3  1  0
  3  4  1  0
  3 31  1  0
  3 32  1  0
  4  5  1  1
  4  6  1  0
  4 21  1  0
  6 33  1  0
  7  6  1  0
  7 19  2  0
  7  8  1  0
  8  9  1  0
  8 10  1  0
 10 11  2  0
 10 34  1  0
 11 12  1  0
 11 19  1  0
 12 18  1  0
 12 13  2  0
 13 14  1  0
 13 35  1  0
 14 15  2  0
 14 36  1  0
 15 16  1  0
 15 17  1  0
 16 37  1  0
 16 38  1  0
 17 18  2  0
 17 39  1  0
 18 40  1  0
 19 20  1  0
 21 27  1  0
 21 22  2  0
 22 23  1  0
 22 41  1  0
 23 24  2  0
 23 42  1  0
 24 25  1  0
 24 26  1  0
 26 27  2  0
 26 43  1  0
 27 44  1  0
M  CHG  1  19   1
M  END
>  <DOCK_score>  (1) 
-56.624928

>  <SMILES>  (1) 
COC[C@H](Nc1[nH]cc(-c2ccc(N)cc2)[nH+]1)c1ccc(F)cc1

$$$$
