Nc1ccc(-c2c[nH]c(NC(CC3CCCC3)CC3CCCC3)[nH+]2)cc1
     RDKit          3D

 59 62  0  0  1  0  0  0  0  0999 V2000
  131.2636  130.0302  151.6760 N   0  0  0  0  0  0  0  0  0  0  0  0
  131.0145  130.6100  152.9221 C   0  0  0  0  0  0  0  0  0  0  0  0
  130.6629  131.9521  153.0052 C   0  0  0  0  0  0  0  0  0  0  0  0
  130.4170  132.5266  154.2344 C   0  0  0  0  0  0  0  0  0  0  0  0
  130.5209  131.7603  155.3941 C   0  0  0  0  0  0  0  0  0  0  0  0
  130.2568  132.3762  156.7178 C   0  0  0  0  0  0  0  0  0  0  0  0
  129.7650  131.7404  157.8097 C   0  0  0  0  0  0  0  0  0  0  0  0
  129.6836  132.6767  158.8131 N   0  0  0  0  0  0  0  0  0  0  0  0
  129.3706  132.5231  159.7184 H   0  0  0  0  0  0  0  0  0  0  0  0
  130.1198  133.8593  158.3008 C   0  0  0  0  0  0  0  0  0  0  0  0
  130.1929  135.0583  158.9891 N   0  0  0  0  0  0  0  0  0  0  0  0
  129.7791  135.1234  160.3929 C   0  0  0  0  0  0  0  0  0  0  0  0
  130.5877  136.2043  161.1133 C   0  0  0  0  0  0  0  0  0  0  0  0
  132.0772  135.8636  161.0360 C   0  0  0  0  0  0  0  0  0  0  0  0
  132.9149  136.8462  161.8928 C   0  0  0  0  0  0  0  0  0  0  0  0
  134.2048  136.0628  162.2128 C   0  0  0  0  0  0  0  0  0  0  0  0
  133.8542  134.5693  162.0933 C   0  0  0  0  0  0  0  0  0  0  0  0
  132.3630  134.4963  161.7052 C   0  0  0  0  0  0  0  0  0  0  0  0
  128.2896  135.4641  160.4703 C   0  0  0  0  0  0  0  0  0  0  0  0
  127.4639  134.2013  160.2165 C   0  0  0  0  0  0  0  0  0  0  0  0
  126.0110  134.5818  159.8640 C   0  0  0  0  0  0  0  0  0  0  0  0
  125.1557  133.4836  160.5448 C   0  0  0  0  0  0  0  0  0  0  0  0
  125.9071  133.2410  161.8772 C   0  0  0  0  0  0  0  0  0  0  0  0
  127.3980  133.3487  161.4957 C   0  0  0  0  0  0  0  0  0  0  0  0
  130.4648  133.6750  157.0497 N   0  0  0  0  0  0  0  0  0  0  0  0
  130.8131  134.3583  156.4558 H   0  0  0  0  0  0  0  0  0  0  0  0
  130.8789  130.4158  155.3089 C   0  0  0  0  0  0  0  0  0  0  0  0
  131.1183  129.8438  154.0772 C   0  0  0  0  0  0  0  0  0  0  0  0
  131.1910  130.5640  150.8694 H   0  0  0  0  0  0  0  0  0  0  0  0
  131.5090  129.0936  151.6171 H   0  0  0  0  0  0  0  0  0  0  0  0
  130.5824  132.5454  152.1066 H   0  0  0  0  0  0  0  0  0  0  0  0
  130.1438  133.5695  154.2985 H   0  0  0  0  0  0  0  0  0  0  0  0
  129.4936  130.6974  157.8793 H   0  0  0  0  0  0  0  0  0  0  0  0
  130.5181  135.8552  158.5418 H   0  0  0  0  0  0  0  0  0  0  0  0
  129.9565  134.1591  160.8691 H   0  0  0  0  0  0  0  0  0  0  0  0
  130.2798  136.2528  162.1578 H   0  0  0  0  0  0  0  0  0  0  0  0
  130.4104  137.1686  160.6371 H   0  0  0  0  0  0  0  0  0  0  0  0
  132.4193  135.8661  160.0011 H   0  0  0  0  0  0  0  0  0  0  0  0
  132.3846  137.0992  162.8109 H   0  0  0  0  0  0  0  0  0  0  0  0
  133.1467  137.7470  161.3244 H   0  0  0  0  0  0  0  0  0  0  0  0
  134.5369  136.2885  163.2261 H   0  0  0  0  0  0  0  0  0  0  0  0
  134.9857  136.3215  161.4978 H   0  0  0  0  0  0  0  0  0  0  0  0
  134.4646  134.1034  161.3197 H   0  0  0  0  0  0  0  0  0  0  0  0
  134.0173  134.0700  163.0483 H   0  0  0  0  0  0  0  0  0  0  0  0
  132.1917  133.6831  160.9999 H   0  0  0  0  0  0  0  0  0  0  0  0
  131.7436  134.3692  162.5931 H   0  0  0  0  0  0  0  0  0  0  0  0
  128.0578  135.8571  161.4603 H   0  0  0  0  0  0  0  0  0  0  0  0
  128.0486  136.2135  159.7164 H   0  0  0  0  0  0  0  0  0  0  0  0
  127.9058  133.6233  159.4049 H   0  0  0  0  0  0  0  0  0  0  0  0
  125.7647  135.5632  160.2695 H   0  0  0  0  0  0  0  0  0  0  0  0
  125.8640  134.5664  158.7840 H   0  0  0  0  0  0  0  0  0  0  0  0
  125.1393  132.5771  159.9397 H   0  0  0  0  0  0  0  0  0  0  0  0
  124.1425  133.8396  160.7319 H   0  0  0  0  0  0  0  0  0  0  0  0
  125.6837  132.2473  162.2657 H   0  0  0  0  0  0  0  0  0  0  0  0
  125.6447  134.0039  162.6101 H   0  0  0  0  0  0  0  0  0  0  0  0
  127.8071  132.3567  161.3049 H   0  0  0  0  0  0  0  0  0  0  0  0
  127.9542  133.8345  162.2974 H   0  0  0  0  0  0  0  0  0  0  0  0
  130.9647  129.8212  156.2065 H   0  0  0  0  0  0  0  0  0  0  0  0
  131.3913  128.8011  154.0102 H   0  0  0  0  0  0  0  0  0  0  0  0
  1  2  1  0
  1 29  1  0
  1 30  1  0
  2 28  2  0
  2  3  1  0
  3  4  2  0
  3 31  1  0
  4  5  1  0
  4 32  1  0
  5  6  1  0
  5 27  2  0
  6 25  1  0
  6  7  2  0
  7  8  1  0
  7 33  1  0
  8  9  1  0
  8 10  1  0
 10 11  1  0
 10 25  2  0
 11 12  1  0
 11 34  1  0
 12 13  1  0
 12 19  1  0
 12 35  1  0
 13 14  1  0
 13 36  1  0
 13 37  1  0
 14 18  1  0
 14 15  1  0
 14 38  1  0
 15 16  1  0
 15 39  1  0
 15 40  1  0
 16 17  1  0
 16 41  1  0
 16 42  1  0
 17 18  1  0
 17 43  1  0
 17 44  1  0
 18 45  1  0
 18 46  1  0
 19 20  1  0
 19 47  1  0
 19 48  1  0
 20 24  1  0
 20 21  1  0
 20 49  1  0
 21 22  1  0
 21 50  1  0
 21 51  1  0
 22 23  1  0
 22 52  1  0
 22 53  1  0
 23 24  1  0
 23 54  1  0
 23 55  1  0
 24 56  1  0
 24 57  1  0
 25 26  1  0
 27 28  1  0
 27 58  1  0
 28 59  1  0
M  CHG  1  25   1
M  END
>  <DOCK_score>  (1) 
-56.294304

>  <SMILES>  (1) 
Nc1ccc(-c2c[nH]c(NC(CC3CCCC3)CC3CCCC3)[nH+]2)cc1

$$$$
