Fc1cccc(NCc2coc3ccccc23)c1C[NH2+]CCC1=CCC=CC1
     RDKit          3D

 54 57  0  0  0  0  0  0  0  0999 V2000
  133.5438  133.2467  159.4405 F   0  0  0  0  0  0  0  0  0  0  0  0
  132.2029  133.4047  159.3945 C   0  0  0  0  0  0  0  0  0  0  0  0
  131.4270  132.5254  158.6568 C   0  0  0  0  0  0  0  0  0  0  0  0
  130.0547  132.6845  158.6078 C   0  0  0  0  0  0  0  0  0  0  0  0
  129.4526  133.7212  159.2940 C   0  0  0  0  0  0  0  0  0  0  0  0
  130.2266  134.6054  160.0345 C   0  0  0  0  0  0  0  0  0  0  0  0
  129.6196  135.6542  160.7291 N   0  0  0  0  0  0  0  0  0  0  0  0
  128.1653  135.8224  160.6770 C   0  0  0  0  0  0  0  0  0  0  0  0
  127.7680  137.0178  161.5042 C   0  0  0  0  0  0  0  0  0  0  0  0
  126.7550  137.0907  162.3783 C   0  0  0  0  0  0  0  0  0  0  0  0
  126.7050  138.3167  162.9281 O   0  0  0  0  0  0  0  0  0  0  0  0
  127.6838  139.1036  162.4382 C   0  0  0  0  0  0  0  0  0  0  0  0
  128.0587  140.4208  162.6717 C   0  0  0  0  0  0  0  0  0  0  0  0
  129.1352  140.9568  161.9977 C   0  0  0  0  0  0  0  0  0  0  0  0
  129.8505  140.1944  161.0856 C   0  0  0  0  0  0  0  0  0  0  0  0
  129.4978  138.8960  160.8413 C   0  0  0  0  0  0  0  0  0  0  0  0
  128.4124  138.3365  161.5137 C   0  0  0  0  0  0  0  0  0  0  0  0
  131.6059  134.4481  160.0784 C   0  0  0  0  0  0  0  0  0  0  0  0
  132.4501  135.4090  160.8753 C   0  0  0  0  0  0  0  0  0  0  0  0
  132.8581  136.5296  160.0176 N   0  0  0  0  0  0  0  0  0  0  0  0
  133.3934  136.1788  159.2377 H   0  0  0  0  0  0  0  0  0  0  0  0
  132.0378  137.0071  159.6749 H   0  0  0  0  0  0  0  0  0  0  0  0
  133.6811  137.4663  160.7944 C   0  0  0  0  0  0  0  0  0  0  0  0
  134.1061  138.6336  159.9011 C   0  0  0  0  0  0  0  0  0  0  0  0
  134.9503  139.5944  160.6979 C   0  0  0  0  0  0  0  0  0  0  0  0
  134.3603  140.5636  161.3288 C   0  0  0  0  0  0  0  0  0  0  0  0
  135.1062  141.5728  162.1490 C   0  0  0  0  0  0  0  0  0  0  0  0
  136.4662  141.0667  162.5252 C   0  0  0  0  0  0  0  0  0  0  0  0
  137.0561  140.0974  161.8944 C   0  0  0  0  0  0  0  0  0  0  0  0
  136.4346  139.3866  160.7325 C   0  0  0  0  0  0  0  0  0  0  0  0
  131.8951  131.7140  158.1193 H   0  0  0  0  0  0  0  0  0  0  0  0
  129.4526  131.9975  158.0319 H   0  0  0  0  0  0  0  0  0  0  0  0
  128.3803  133.8444  159.2544 H   0  0  0  0  0  0  0  0  0  0  0  0
  130.1611  136.2712  161.2459 H   0  0  0  0  0  0  0  0  0  0  0  0
  127.6819  134.9295  161.0733 H   0  0  0  0  0  0  0  0  0  0  0  0
  127.8540  135.9759  159.6438 H   0  0  0  0  0  0  0  0  0  0  0  0
  126.0769  136.2821  162.6077 H   0  0  0  0  0  0  0  0  0  0  0  0
  127.5113  141.0218  163.3827 H   0  0  0  0  0  0  0  0  0  0  0  0
  129.4244  141.9812  162.1812 H   0  0  0  0  0  0  0  0  0  0  0  0
  130.6910  140.6292  160.5651 H   0  0  0  0  0  0  0  0  0  0  0  0
  130.0581  138.3065  160.1308 H   0  0  0  0  0  0  0  0  0  0  0  0
  131.8719  135.7881  161.7179 H   0  0  0  0  0  0  0  0  0  0  0  0
  133.3363  134.8933  161.2453 H   0  0  0  0  0  0  0  0  0  0  0  0
  133.1027  137.8456  161.6370 H   0  0  0  0  0  0  0  0  0  0  0  0
  134.5672  136.9508  161.1646 H   0  0  0  0  0  0  0  0  0  0  0  0
  134.6844  138.2544  159.0585 H   0  0  0  0  0  0  0  0  0  0  0  0
  133.2200  139.1493  159.5310 H   0  0  0  0  0  0  0  0  0  0  0  0
  133.2857  140.6465  161.2598 H   0  0  0  0  0  0  0  0  0  0  0  0
  135.2139  142.4920  161.5731 H   0  0  0  0  0  0  0  0  0  0  0  0
  134.5408  141.7840  163.0565 H   0  0  0  0  0  0  0  0  0  0  0  0
  136.9773  141.5282  163.3573 H   0  0  0  0  0  0  0  0  0  0  0  0
  138.0366  139.7874  162.2245 H   0  0  0  0  0  0  0  0  0  0  0  0
  136.6441  138.3198  160.8105 H   0  0  0  0  0  0  0  0  0  0  0  0
  136.8705  139.7688  159.8096 H   0  0  0  0  0  0  0  0  0  0  0  0
  1  2  1  0
  2 18  2  0
  2  3  1  0
  3  4  2  0
  3 31  1  0
  4  5  1  0
  4 32  1  0
  5  6  2  0
  5 33  1  0
  6  7  1  0
  6 18  1  0
  7  8  1  0
  7 34  1  0
  8  9  1  0
  8 35  1  0
  8 36  1  0
  9 17  1  0
  9 10  2  0
 10 11  1  0
 10 37  1  0
 11 12  1  0
 12 17  2  0
 12 13  1  0
 13 14  2  0
 13 38  1  0
 14 15  1  0
 14 39  1  0
 15 16  2  0
 15 40  1  0
 16 17  1  0
 16 41  1  0
 18 19  1  0
 19 20  1  0
 19 42  1  0
 19 43  1  0
 20 21  1  0
 20 22  1  0
 20 23  1  0
 23 24  1  0
 23 44  1  0
 23 45  1  0
 24 25  1  0
 24 46  1  0
 24 47  1  0
 25 30  1  0
 25 26  2  0
 26 27  1  0
 26 48  1  0
 27 28  1  0
 27 49  1  0
 27 50  1  0
 28 29  2  0
 28 51  1  0
 29 30  1  0
 29 52  1  0
 30 53  1  0
 30 54  1  0
M  CHG  1  20   1
M  END
>  <DOCK_score>  (1) 
-43.219604

>  <SMILES>  (1) 
Fc1cccc(NCc2coc3ccccc23)c1C[NH2+]CCC1=CCC=CC1

$$$$
