O[C@H](C[NH2+]C[C@H]1CCC=C1c1cncc(-c2ccc3cccnc3c2)c1)c1ccccc1
     RDKit          3D

 60 64  0  0  1  0  0  0  0  0999 V2000
  131.2576  137.4516  160.0102 O   0  0  0  0  0  0  0  0  0  0  0  0
  132.2695  137.4816  161.0187 C   0  0  2  0  0  0  0  0  0  0  0  0
  132.7395  136.5008  161.0910 H   0  0  0  0  0  0  0  0  0  0  0  0
  131.6382  137.8450  162.3642 C   0  0  0  0  0  0  0  0  0  0  0  0
  131.0046  136.6540  162.9454 N   0  0  0  0  0  0  0  0  0  0  0  0
  130.2899  136.3139  162.3196 H   0  0  0  0  0  0  0  0  0  0  0  0
  131.7004  135.9363  163.0832 H   0  0  0  0  0  0  0  0  0  0  0  0
  130.3986  137.0029  164.2373 C   0  0  0  0  0  0  0  0  0  0  0  0
  129.7386  135.7624  164.8427 C   0  0  1  0  0  0  0  0  0  0  0  0
  130.3609  134.8830  164.6762 H   0  0  0  0  0  0  0  0  0  0  0  0
  129.4889  135.9693  166.3541 C   0  0  0  0  0  0  0  0  0  0  0  0
  128.1426  135.2354  166.5508 C   0  0  0  0  0  0  0  0  0  0  0  0
  127.4846  135.2641  165.1909 C   0  0  0  0  0  0  0  0  0  0  0  0
  128.3647  135.5547  164.2490 C   0  0  0  0  0  0  0  0  0  0  0  0
  128.0479  135.6626  162.8089 C   0  0  0  0  0  0  0  0  0  0  0  0
  127.1108  136.5938  162.3575 C   0  0  0  0  0  0  0  0  0  0  0  0
  126.8276  136.6992  161.0753 N   0  0  0  0  0  0  0  0  0  0  0  0
  127.3989  135.9329  160.1683 C   0  0  0  0  0  0  0  0  0  0  0  0
  128.3419  134.9731  160.5331 C   0  0  0  0  0  0  0  0  0  0  0  0
  128.9792  134.1153  159.5039 C   0  0  0  0  0  0  0  0  0  0  0  0
  129.1555  134.6075  158.2007 C   0  0  0  0  0  0  0  0  0  0  0  0
  129.7407  133.8427  157.2425 C   0  0  0  0  0  0  0  0  0  0  0  0
  130.1682  132.5395  157.5496 C   0  0  0  0  0  0  0  0  0  0  0  0
  130.7731  131.7231  156.5757 C   0  0  0  0  0  0  0  0  0  0  0  0
  131.1647  130.4661  156.9398 C   0  0  0  0  0  0  0  0  0  0  0  0
  130.9611  130.0249  158.2455 C   0  0  0  0  0  0  0  0  0  0  0  0
  130.3972  130.7874  159.1506 N   0  0  0  0  0  0  0  0  0  0  0  0
  129.9912  132.0282  158.8597 C   0  0  0  0  0  0  0  0  0  0  0  0
  129.3884  132.8378  159.8357 C   0  0  0  0  0  0  0  0  0  0  0  0
  128.6776  134.8302  161.8801 C   0  0  0  0  0  0  0  0  0  0  0  0
  133.3089  138.5111  160.6570 C   0  0  0  0  0  0  0  0  0  0  0  0
  134.4070  138.1481  159.8999 C   0  0  0  0  0  0  0  0  0  0  0  0
  135.3582  139.0932  159.5642 C   0  0  0  0  0  0  0  0  0  0  0  0
  135.2162  140.3995  159.9939 C   0  0  0  0  0  0  0  0  0  0  0  0
  134.1205  140.7615  160.7550 C   0  0  0  0  0  0  0  0  0  0  0  0
  133.1671  139.8171  161.0870 C   0  0  0  0  0  0  0  0  0  0  0  0
  131.5870  137.2274  159.1291 H   0  0  0  0  0  0  0  0  0  0  0  0
  130.8866  138.6203  162.2153 H   0  0  0  0  0  0  0  0  0  0  0  0
  132.4101  138.2125  163.0403 H   0  0  0  0  0  0  0  0  0  0  0  0
  131.1706  137.3703  164.9134 H   0  0  0  0  0  0  0  0  0  0  0  0
  129.6470  137.7783  164.0885 H   0  0  0  0  0  0  0  0  0  0  0  0
  130.2769  135.5053  166.9474 H   0  0  0  0  0  0  0  0  0  0  0  0
  129.3946  137.0286  166.5932 H   0  0  0  0  0  0  0  0  0  0  0  0
  127.5273  135.7606  167.2812 H   0  0  0  0  0  0  0  0  0  0  0  0
  128.3140  134.2066  166.8678 H   0  0  0  0  0  0  0  0  0  0  0  0
  126.4367  135.0726  165.0128 H   0  0  0  0  0  0  0  0  0  0  0  0
  126.6153  137.2388  163.0679 H   0  0  0  0  0  0  0  0  0  0  0  0
  127.1333  136.0502  159.1281 H   0  0  0  0  0  0  0  0  0  0  0  0
  128.8252  135.6068  157.9582 H   0  0  0  0  0  0  0  0  0  0  0  0
  129.8749  134.2347  156.2452 H   0  0  0  0  0  0  0  0  0  0  0  0
  130.9231  132.0807  155.5678 H   0  0  0  0  0  0  0  0  0  0  0  0
  131.6322  129.8149  156.2160 H   0  0  0  0  0  0  0  0  0  0  0  0
  131.2759  129.0287  158.5191 H   0  0  0  0  0  0  0  0  0  0  0  0
  129.2451  132.4646  160.8389 H   0  0  0  0  0  0  0  0  0  0  0  0
  129.4046  134.0966  162.1958 H   0  0  0  0  0  0  0  0  0  0  0  0
  134.5200  137.1266  159.5676 H   0  0  0  0  0  0  0  0  0  0  0  0
  136.2140  138.8106  158.9693 H   0  0  0  0  0  0  0  0  0  0  0  0
  135.9611  141.1372  159.7345 H   0  0  0  0  0  0  0  0  0  0  0  0
  134.0096  141.7819  161.0907 H   0  0  0  0  0  0  0  0  0  0  0  0
  132.3113  140.0998  161.6820 H   0  0  0  0  0  0  0  0  0  0  0  0
  1  2  1  0
  1 37  1  0
  2  3  1  1
  2  4  1  0
  2 31  1  0
  4  5  1  0
  4 38  1  0
  4 39  1  0
  5  6  1  0
  5  7  1  0
  5  8  1  0
  8  9  1  0
  8 40  1  0
  8 41  1  0
  9 10  1  1
  9 14  1  0
  9 11  1  0
 11 12  1  0
 11 42  1  0
 11 43  1  0
 12 13  1  0
 12 44  1  0
 12 45  1  0
 13 14  2  0
 13 46  1  0
 14 15  1  0
 15 30  1  0
 15 16  2  0
 16 17  1  0
 16 47  1  0
 17 18  2  0
 18 19  1  0
 18 48  1  0
 19 20  1  0
 19 30  2  0
 20 29  1  0
 20 21  2  0
 21 22  1  0
 21 49  1  0
 22 23  2  0
 22 50  1  0
 23 28  1  0
 23 24  1  0
 24 25  2  0
 24 51  1  0
 25 26  1  0
 25 52  1  0
 26 27  2  0
 26 53  1  0
 27 28  1  0
 28 29  2  0
 29 54  1  0
 30 55  1  0
 31 36  1  0
 31 32  2  0
 32 33  1  0
 32 56  1  0
 33 34  2  0
 33 57  1  0
 34 35  1  0
 34 58  1  0
 35 36  2  0
 35 59  1  0
 36 60  1  0
M  CHG  1   5   1
M  END
>  <DOCK_score>  (1) 
-45.398727

>  <SMILES>  (1) 
O[C@H](C[NH2+]C[C@H]1CCC=C1c1cncc(-c2ccc3cccnc3c2)c1)c1ccccc1

$$$$
