C1=C[C@@H]([NH2+]Cc2c[nH]nc2-c2ccc(NC3CC3)o2)CC1
     RDKit          3D

 42 45  0  0  1  0  0  0  0  0999 V2000
  131.6157  139.2083  160.2794 C   0  0  0  0  0  0  0  0  0  0  0  0
  131.2363  138.1219  160.9012 C   0  0  0  0  0  0  0  0  0  0  0  0
  132.3246  137.0741  160.8705 C   0  0  1  0  0  0  0  0  0  0  0  0
  132.4382  136.6158  161.8529 H   0  0  0  0  0  0  0  0  0  0  0  0
  132.0211  136.0506  159.8615 N   0  0  0  0  0  0  0  0  0  0  0  0
  132.8677  135.5595  159.6153 H   0  0  0  0  0  0  0  0  0  0  0  0
  131.6374  136.4920  159.0394 H   0  0  0  0  0  0  0  0  0  0  0  0
  131.0445  135.0989  160.4076 C   0  0  0  0  0  0  0  0  0  0  0  0
  130.7331  134.0488  159.3724 C   0  0  0  0  0  0  0  0  0  0  0  0
  131.6331  133.3957  158.6067 C   0  0  0  0  0  0  0  0  0  0  0  0
  130.9594  132.5432  157.8044 N   0  0  0  0  0  0  0  0  0  0  0  0
  131.3538  131.9485  157.1473 H   0  0  0  0  0  0  0  0  0  0  0  0
  129.5928  132.6660  158.0854 N   0  0  0  0  0  0  0  0  0  0  0  0
  129.4497  133.5708  159.0337 C   0  0  0  0  0  0  0  0  0  0  0  0
  128.1719  134.0104  159.6312 C   0  0  0  0  0  0  0  0  0  0  0  0
  126.9380  133.5432  159.3049 C   0  0  0  0  0  0  0  0  0  0  0  0
  126.0131  134.2356  160.1111 C   0  0  0  0  0  0  0  0  0  0  0  0
  126.7268  135.0831  160.8936 C   0  0  0  0  0  0  0  0  0  0  0  0
  126.1989  135.9523  161.8412 N   0  0  0  0  0  0  0  0  0  0  0  0
  126.9843  136.3101  163.0251 C   0  0  0  0  0  0  0  0  0  0  0  0
  127.5825  135.1674  163.8478 C   0  0  0  0  0  0  0  0  0  0  0  0
  126.3955  135.9646  164.3943 C   0  0  0  0  0  0  0  0  0  0  0  0
  128.0301  134.9413  160.5980 O   0  0  0  0  0  0  0  0  0  0  0  0
  133.6071  137.8470  160.4849 C   0  0  0  0  0  0  0  0  0  0  0  0
  133.0174  139.0634  159.7343 C   0  0  0  0  0  0  0  0  0  0  0  0
  131.0064  140.0935  160.1708 H   0  0  0  0  0  0  0  0  0  0  0  0
  130.2742  137.9898  161.3737 H   0  0  0  0  0  0  0  0  0  0  0  0
  130.1300  135.6293  160.6735 H   0  0  0  0  0  0  0  0  0  0  0  0
  131.4591  134.6219  161.2956 H   0  0  0  0  0  0  0  0  0  0  0  0
  132.7040  133.5344  158.6282 H   0  0  0  0  0  0  0  0  0  0  0  0
  126.7101  132.7878  158.5675 H   0  0  0  0  0  0  0  0  0  0  0  0
  124.9402  134.1117  160.1099 H   0  0  0  0  0  0  0  0  0  0  0  0
  125.3106  136.3221  161.7186 H   0  0  0  0  0  0  0  0  0  0  0  0
  127.5644  137.2294  162.9441 H   0  0  0  0  0  0  0  0  0  0  0  0
  127.3918  134.1492  163.5083 H   0  0  0  0  0  0  0  0  0  0  0  0
  128.5561  135.3349  164.3084 H   0  0  0  0  0  0  0  0  0  0  0  0
  126.5887  136.6564  165.2143 H   0  0  0  0  0  0  0  0  0  0  0  0
  125.4239  135.4710  164.4143 H   0  0  0  0  0  0  0  0  0  0  0  0
  134.1553  138.1632  161.3726 H   0  0  0  0  0  0  0  0  0  0  0  0
  134.2406  137.2511  159.8278 H   0  0  0  0  0  0  0  0  0  0  0  0
  133.6013  139.9594  159.9450 H   0  0  0  0  0  0  0  0  0  0  0  0
  132.9915  138.8715  158.6616 H   0  0  0  0  0  0  0  0  0  0  0  0
  1 25  1  0
  1  2  2  0
  1 26  1  0
  2  3  1  0
  2 27  1  0
  3  4  1  1
  3  5  1  0
  3 24  1  0
  5  6  1  0
  5  7  1  0
  5  8  1  0
  8  9  1  0
  8 28  1  0
  8 29  1  0
  9 14  1  0
  9 10  2  0
 10 11  1  0
 10 30  1  0
 11 12  1  0
 11 13  1  0
 13 14  2  0
 14 15  1  0
 15 23  1  0
 15 16  2  0
 16 17  1  0
 16 31  1  0
 17 18  2  0
 17 32  1  0
 18 19  1  0
 18 23  1  0
 19 20  1  0
 19 33  1  0
 20 22  1  0
 20 21  1  0
 20 34  1  0
 21 22  1  0
 21 35  1  0
 21 36  1  0
 22 37  1  0
 22 38  1  0
 24 25  1  0
 24 39  1  0
 24 40  1  0
 25 41  1  0
 25 42  1  0
M  CHG  1   5   1
M  END
>  <DOCK_score>  (1) 
-43.596493

>  <SMILES>  (1) 
C1=C[C@@H]([NH2+]Cc2c[nH]nc2-c2ccc(NC3CC3)o2)CC1

$$$$
