Cn1nccc1C(Nc1[nH]cc(-c2ccc(N)cc2)[nH+]1)[C@H](c1ccccc1)c1ccncc1
     RDKit          3D

 59 63  0  0  1  0  0  0  0  0999 V2000
  127.3858  134.8441  162.5117 C   0  0  0  0  0  0  0  0  0  0  0  0
  127.0041  135.2225  161.1490 N   0  0  0  0  0  0  0  0  0  0  0  0
  125.7044  135.2189  160.6262 N   0  0  0  0  0  0  0  0  0  0  0  0
  125.7636  135.6173  159.3813 C   0  0  0  0  0  0  0  0  0  0  0  0
  127.1007  135.8870  159.0719 C   0  0  0  0  0  0  0  0  0  0  0  0
  127.8422  135.6362  160.1756 C   0  0  0  0  0  0  0  0  0  0  0  0
  129.3370  135.7858  160.2946 C   0  0  1  0  0  0  0  0  0  0  0  0
  129.9570  135.5480  158.9887 N   0  0  0  0  0  0  0  0  0  0  0  0
  129.7923  134.3276  158.3562 C   0  0  0  0  0  0  0  0  0  0  0  0
  129.0863  133.2713  158.8435 N   0  0  0  0  0  0  0  0  0  0  0  0
  128.6122  133.2380  159.6891 H   0  0  0  0  0  0  0  0  0  0  0  0
  129.1664  132.2612  157.9143 C   0  0  0  0  0  0  0  0  0  0  0  0
  129.9259  132.7267  156.8920 C   0  0  0  0  0  0  0  0  0  0  0  0
  130.2885  131.9791  155.6630 C   0  0  0  0  0  0  0  0  0  0  0  0
  129.9061  132.4632  154.4130 C   0  0  0  0  0  0  0  0  0  0  0  0
  130.2492  131.7697  153.2716 C   0  0  0  0  0  0  0  0  0  0  0  0
  130.9653  130.5830  153.3672 C   0  0  0  0  0  0  0  0  0  0  0  0
  131.3065  129.8781  152.2105 N   0  0  0  0  0  0  0  0  0  0  0  0
  131.3431  130.0950  154.6132 C   0  0  0  0  0  0  0  0  0  0  0  0
  131.0071  130.7882  155.7568 C   0  0  0  0  0  0  0  0  0  0  0  0
  130.2953  133.9971  157.1917 N   0  0  0  0  0  0  0  0  0  0  0  0
  130.8444  134.5696  156.6334 H   0  0  0  0  0  0  0  0  0  0  0  0
  129.6718  137.2018  160.7679 C   0  0  2  0  0  0  0  0  0  0  0  0
  129.0137  137.9156  160.2724 H   0  0  0  0  0  0  0  0  0  0  0  0
  131.1050  137.5196  160.4270 C   0  0  0  0  0  0  0  0  0  0  0  0
  131.4789  138.8231  160.1587 C   0  0  0  0  0  0  0  0  0  0  0  0
  132.7944  139.1153  159.8504 C   0  0  0  0  0  0  0  0  0  0  0  0
  133.7342  138.1026  159.8014 C   0  0  0  0  0  0  0  0  0  0  0  0
  133.3591  136.7984  160.0646 C   0  0  0  0  0  0  0  0  0  0  0  0
  132.0446  136.5068  160.3772 C   0  0  0  0  0  0  0  0  0  0  0  0
  129.4785  137.2917  162.2596 C   0  0  0  0  0  0  0  0  0  0  0  0
  130.2043  136.4817  163.1195 C   0  0  0  0  0  0  0  0  0  0  0  0
  130.0039  136.5959  164.4822 C   0  0  0  0  0  0  0  0  0  0  0  0
  129.1275  137.4546  164.9654 N   0  0  0  0  0  0  0  0  0  0  0  0
  128.4158  138.2366  164.1775 C   0  0  0  0  0  0  0  0  0  0  0  0
  128.5664  138.1825  162.8046 C   0  0  0  0  0  0  0  0  0  0  0  0
  127.2600  135.6996  163.1753 H   0  0  0  0  0  0  0  0  0  0  0  0
  126.7531  134.0243  162.8520 H   0  0  0  0  0  0  0  0  0  0  0  0
  128.4286  134.5266  162.5221 H   0  0  0  0  0  0  0  0  0  0  0  0
  124.9248  135.7196  158.7087 H   0  0  0  0  0  0  0  0  0  0  0  0
  127.4752  136.2338  158.1200 H   0  0  0  0  0  0  0  0  0  0  0  0
  129.7184  135.0622  161.0151 H   0  0  0  0  0  0  0  0  0  0  0  0
  130.4830  136.2455  158.5673 H   0  0  0  0  0  0  0  0  0  0  0  0
  128.7143  131.2831  157.9865 H   0  0  0  0  0  0  0  0  0  0  0  0
  129.3451  133.3831  154.3382 H   0  0  0  0  0  0  0  0  0  0  0  0
  129.9570  132.1468  152.3028 H   0  0  0  0  0  0  0  0  0  0  0  0
  131.8066  129.0497  152.2765 H   0  0  0  0  0  0  0  0  0  0  0  0
  131.0432  130.2176  151.3407 H   0  0  0  0  0  0  0  0  0  0  0  0
  131.8999  129.1724  154.6855 H   0  0  0  0  0  0  0  0  0  0  0  0
  131.3008  130.4091  156.7246 H   0  0  0  0  0  0  0  0  0  0  0  0
  130.7441  139.6136  160.1933 H   0  0  0  0  0  0  0  0  0  0  0  0
  133.0874  140.1343  159.6452 H   0  0  0  0  0  0  0  0  0  0  0  0
  134.7614  138.3305  159.5580 H   0  0  0  0  0  0  0  0  0  0  0  0
  134.0933  136.0072  160.0264 H   0  0  0  0  0  0  0  0  0  0  0  0
  131.7515  135.4878  160.5827 H   0  0  0  0  0  0  0  0  0  0  0  0
  130.9202  135.7732  162.7295 H   0  0  0  0  0  0  0  0  0  0  0  0
  130.5683  135.9714  165.1589 H   0  0  0  0  0  0  0  0  0  0  0  0
  127.7075  138.9277  164.6099 H   0  0  0  0  0  0  0  0  0  0  0  0
  127.9811  138.8261  162.1645 H   0  0  0  0  0  0  0  0  0  0  0  0
  1  2  1  0
  1 37  1  0
  1 38  1  0
  1 39  1  0
  2  6  1  0
  2  3  1  0
  3  4  2  0
  4  5  1  0
  4 40  1  0
  5  6  2  0
  5 41  1  0
  6  7  1  0
  7  8  1  0
  7 23  1  0
  7 42  1  1
  8 43  1  0
  9  8  1  0
  9 21  2  0
  9 10  1  0
 10 11  1  0
 10 12  1  0
 12 13  2  0
 12 44  1  0
 13 14  1  0
 13 21  1  0
 14 20  1  0
 14 15  2  0
 15 16  1  0
 15 45  1  0
 16 17  2  0
 16 46  1  0
 17 18  1  0
 17 19  1  0
 18 47  1  0
 18 48  1  0
 19 20  2  0
 19 49  1  0
 20 50  1  0
 21 22  1  0
 23 24  1  6
 23 25  1  0
 23 31  1  0
 25 30  1  0
 25 26  2  0
 26 27  1  0
 26 51  1  0
 27 28  2  0
 27 52  1  0
 28 29  1  0
 28 53  1  0
 29 30  2  0
 29 54  1  0
 30 55  1  0
 31 36  1  0
 31 32  2  0
 32 33  1  0
 32 56  1  0
 33 34  2  0
 33 57  1  0
 34 35  1  0
 35 36  2  0
 35 58  1  0
 36 59  1  0
M  CHG  1  21   1
M  END
>  <DOCK_score>  (1) 
-59.27174

>  <SMILES>  (1) 
Cn1nccc1C(Nc1[nH]cc(-c2ccc(N)cc2)[nH+]1)[C@H](c1ccccc1)c1ccncc1

$$$$
