Nc1ccc(-c2c[nH]c(Nc3ccccc3N3CCN(c4cccc5cc[nH]c45)CC3)[nH+]2)cc1
     RDKit          3D

 62 67  0  0  1  0  0  0  0  0999 V2000
  131.4055  129.9963  151.3810 N   0  0  0  0  0  0  0  0  0  0  0  0
  131.0469  130.5993  152.5891 C   0  0  0  0  0  0  0  0  0  0  0  0
  130.4031  131.8315  152.5854 C   0  0  0  0  0  0  0  0  0  0  0  0
  130.0477  132.4283  153.7765 C   0  0  0  0  0  0  0  0  0  0  0  0
  130.3346  131.7952  154.9849 C   0  0  0  0  0  0  0  0  0  0  0  0
  129.9536  132.4355  156.2678 C   0  0  0  0  0  0  0  0  0  0  0  0
  129.1151  131.9182  157.1997 C   0  0  0  0  0  0  0  0  0  0  0  0
  129.0427  132.8333  158.2226 N   0  0  0  0  0  0  0  0  0  0  0  0
  128.5200  132.7467  159.0352 H   0  0  0  0  0  0  0  0  0  0  0  0
  129.8400  133.8834  157.8847 C   0  0  0  0  0  0  0  0  0  0  0  0
  130.0441  135.0201  158.6492 N   0  0  0  0  0  0  0  0  0  0  0  0
  129.0315  135.4841  159.4983 C   0  0  0  0  0  0  0  0  0  0  0  0
  127.7001  135.2676  159.1760 C   0  0  0  0  0  0  0  0  0  0  0  0
  126.7022  135.7269  160.0154 C   0  0  0  0  0  0  0  0  0  0  0  0
  127.0270  136.4028  161.1770 C   0  0  0  0  0  0  0  0  0  0  0  0
  128.3515  136.6233  161.5062 C   0  0  0  0  0  0  0  0  0  0  0  0
  129.3590  136.1660  160.6702 C   0  0  0  0  0  0  0  0  0  0  0  0
  130.7007  136.3884  161.0012 N   0  0  0  0  0  0  0  0  0  0  0  0
  130.8974  136.3498  162.4570 C   0  0  0  0  0  0  0  0  0  0  0  0
  132.3856  136.5175  162.7727 C   0  0  0  0  0  0  0  0  0  0  0  0
  132.8620  137.7901  162.2133 N   0  0  0  0  0  0  0  0  0  0  0  0
  134.2024  138.0123  162.5438 C   0  0  0  0  0  0  0  0  0  0  0  0
  135.1761  137.1143  162.1424 C   0  0  0  0  0  0  0  0  0  0  0  0
  136.5094  137.3301  162.4596 C   0  0  0  0  0  0  0  0  0  0  0  0
  136.8827  138.4259  163.1854 C   0  0  0  0  0  0  0  0  0  0  0  0
  135.9169  139.3439  163.6079 C   0  0  0  0  0  0  0  0  0  0  0  0
  135.9654  140.5894  164.3774 C   0  0  0  0  0  0  0  0  0  0  0  0
  134.7051  141.0424  164.4718 C   0  0  0  0  0  0  0  0  0  0  0  0
  133.8540  140.1889  163.8257 N   0  0  0  0  0  0  0  0  0  0  0  0
  132.8934  140.3055  163.7574 H   0  0  0  0  0  0  0  0  0  0  0  0
  134.5651  139.1386  163.2861 C   0  0  0  0  0  0  0  0  0  0  0  0
  132.6654  137.8287  160.7575 C   0  0  0  0  0  0  0  0  0  0  0  0
  131.1772  137.6611  160.4418 C   0  0  0  0  0  0  0  0  0  0  0  0
  130.3783  133.6440  156.7135 N   0  0  0  0  0  0  0  0  0  0  0  0
  130.9854  134.2357  156.2421 H   0  0  0  0  0  0  0  0  0  0  0  0
  130.9850  130.5623  154.9862 C   0  0  0  0  0  0  0  0  0  0  0  0
  131.3338  129.9667  153.7925 C   0  0  0  0  0  0  0  0  0  0  0  0
  131.2054  130.4377  150.5405 H   0  0  0  0  0  0  0  0  0  0  0  0
  131.8549  129.1370  151.3825 H   0  0  0  0  0  0  0  0  0  0  0  0
  130.1814  132.3217  151.6489 H   0  0  0  0  0  0  0  0  0  0  0  0
  129.5472  133.3852  153.7733 H   0  0  0  0  0  0  0  0  0  0  0  0
  128.6022  130.9692  157.1478 H   0  0  0  0  0  0  0  0  0  0  0  0
  130.8884  135.4947  158.5967 H   0  0  0  0  0  0  0  0  0  0  0  0
  127.4428  134.7397  158.2696 H   0  0  0  0  0  0  0  0  0  0  0  0
  125.6660  135.5534  159.7652 H   0  0  0  0  0  0  0  0  0  0  0  0
  126.2436  136.7593  161.8295 H   0  0  0  0  0  0  0  0  0  0  0  0
  128.6016  137.1513  162.4146 H   0  0  0  0  0  0  0  0  0  0  0  0
  130.3337  137.1587  162.9216 H   0  0  0  0  0  0  0  0  0  0  0  0
  130.5487  135.3931  162.8458 H   0  0  0  0  0  0  0  0  0  0  0  0
  132.9460  135.6936  162.3309 H   0  0  0  0  0  0  0  0  0  0  0  0
  132.5304  136.5181  163.8530 H   0  0  0  0  0  0  0  0  0  0  0  0
  134.8962  136.2405  161.5726 H   0  0  0  0  0  0  0  0  0  0  0  0
  137.2581  136.6229  162.1348 H   0  0  0  0  0  0  0  0  0  0  0  0
  137.9225  138.5828  163.4320 H   0  0  0  0  0  0  0  0  0  0  0  0
  136.8479  141.0549  164.7911 H   0  0  0  0  0  0  0  0  0  0  0  0
  134.4077  141.9468  164.9815 H   0  0  0  0  0  0  0  0  0  0  0  0
  133.2289  137.0197  160.2927 H   0  0  0  0  0  0  0  0  0  0  0  0
  133.0140  138.7853  160.3686 H   0  0  0  0  0  0  0  0  0  0  0  0
  131.0323  137.6604  159.3615 H   0  0  0  0  0  0  0  0  0  0  0  0
  130.6165  138.4850  160.8836 H   0  0  0  0  0  0  0  0  0  0  0  0
  131.2122  130.0721  155.9214 H   0  0  0  0  0  0  0  0  0  0  0  0
  131.8344  129.0098  153.7929 H   0  0  0  0  0  0  0  0  0  0  0  0
  1  2  1  0
  1 38  1  0
  1 39  1  0
  2 37  2  0
  2  3  1  0
  3  4  2  0
  3 40  1  0
  4  5  1  0
  4 41  1  0
  5  6  1  0
  5 36  2  0
  6 34  1  0
  6  7  2  0
  7  8  1  0
  7 42  1  0
  8  9  1  0
  8 10  1  0
 10 11  1  0
 10 34  2  0
 11 12  1  0
 11 43  1  0
 12 17  1  0
 12 13  2  0
 13 14  1  0
 13 44  1  0
 14 15  2  0
 14 45  1  0
 15 16  1  0
 15 46  1  0
 16 17  2  0
 16 47  1  0
 17 18  1  0
 18 33  1  0
 18 19  1  0
 19 20  1  0
 19 48  1  0
 19 49  1  0
 20 21  1  0
 20 50  1  0
 20 51  1  0
 21 22  1  0
 21 32  1  0
 22 31  1  0
 22 23  2  0
 23 24  1  0
 23 52  1  0
 24 25  2  0
 24 53  1  0
 25 26  1  0
 25 54  1  0
 26 31  2  0
 26 27  1  0
 27 28  2  0
 27 55  1  0
 28 29  1  0
 28 56  1  0
 29 30  1  0
 29 31  1  0
 32 33  1  0
 32 57  1  0
 32 58  1  0
 33 59  1  0
 33 60  1  0
 34 35  1  0
 36 37  1  0
 36 61  1  0
 37 62  1  0
M  CHG  1  34   1
M  END
>  <DOCK_score>  (1) 
-59.167065

>  <SMILES>  (1) 
Nc1ccc(-c2c[nH]c(Nc3ccccc3N3CCN(c4cccc5cc[nH]c45)CC3)[nH+]2)cc1

$$$$
