c1ccc(C[C@H](Nc2[nH]cc(Nc3ncccc3C3CC3)[nH+]2)c2ccccc2)cc1
     RDKit          3D

 56 60  0  0  1  0  0  0  0  0999 V2000
  125.3591  131.4264  161.1228 C   0  0  0  0  0  0  0  0  0  0  0  0
  126.0154  131.1058  159.9493 C   0  0  0  0  0  0  0  0  0  0  0  0
  126.8027  132.0502  159.3173 C   0  0  0  0  0  0  0  0  0  0  0  0
  126.9407  133.3124  159.8638 C   0  0  0  0  0  0  0  0  0  0  0  0
  127.8027  134.3406  159.1775 C   0  0  0  0  0  0  0  0  0  0  0  0
  129.2363  134.2359  159.7016 C   0  0  2  0  0  0  0  0  0  0  0  0
  129.2181  134.0585  160.7769 H   0  0  0  0  0  0  0  0  0  0  0  0
  129.9500  135.4849  159.4247 N   0  0  0  0  0  0  0  0  0  0  0  0
  130.4725  136.2299  160.4685 C   0  0  0  0  0  0  0  0  0  0  0  0
  129.9713  136.2871  161.7310 N   0  0  0  0  0  0  0  0  0  0  0  0
  129.1892  135.8192  162.0631 H   0  0  0  0  0  0  0  0  0  0  0  0
  130.7872  137.1391  162.4516 C   0  0  0  0  0  0  0  0  0  0  0  0
  131.7486  137.5661  161.6063 C   0  0  0  0  0  0  0  0  0  0  0  0
  132.7915  138.4508  161.9247 N   0  0  0  0  0  0  0  0  0  0  0  0
  133.7193  138.8099  160.9537 C   0  0  0  0  0  0  0  0  0  0  0  0
  133.6140  138.3141  159.7300 N   0  0  0  0  0  0  0  0  0  0  0  0
  134.4732  138.6293  158.7797 C   0  0  0  0  0  0  0  0  0  0  0  0
  135.5207  139.4935  159.0301 C   0  0  0  0  0  0  0  0  0  0  0  0
  135.6667  140.0353  160.3001 C   0  0  0  0  0  0  0  0  0  0  0  0
  134.7468  139.6913  161.2745 C   0  0  0  0  0  0  0  0  0  0  0  0
  134.8600  140.2587  162.6660 C   0  0  0  0  0  0  0  0  0  0  0  0
  136.2143  140.1431  163.3681 C   0  0  0  0  0  0  0  0  0  0  0  0
  135.0407  139.2701  163.8195 C   0  0  0  0  0  0  0  0  0  0  0  0
  131.5376  136.9941  160.4062 N   0  0  0  0  0  0  0  0  0  0  0  0
  132.0860  137.1278  159.6173 H   0  0  0  0  0  0  0  0  0  0  0  0
  129.9395  133.0930  159.0158 C   0  0  0  0  0  0  0  0  0  0  0  0
  129.8974  131.8255  159.5661 C   0  0  0  0  0  0  0  0  0  0  0  0
  130.5392  130.7764  158.9349 C   0  0  0  0  0  0  0  0  0  0  0  0
  131.2300  130.9964  157.7576 C   0  0  0  0  0  0  0  0  0  0  0  0
  131.2765  132.2647  157.2104 C   0  0  0  0  0  0  0  0  0  0  0  0
  130.6315  133.3131  157.8396 C   0  0  0  0  0  0  0  0  0  0  0  0
  126.2882  133.6316  161.0400 C   0  0  0  0  0  0  0  0  0  0  0  0
  125.4979  132.6884  161.6698 C   0  0  0  0  0  0  0  0  0  0  0  0
  124.7417  130.6895  161.6149 H   0  0  0  0  0  0  0  0  0  0  0  0
  125.9107  130.1184  159.5242 H   0  0  0  0  0  0  0  0  0  0  0  0
  127.3127  131.8009  158.3987 H   0  0  0  0  0  0  0  0  0  0  0  0
  127.7950  134.1619  158.1023 H   0  0  0  0  0  0  0  0  0  0  0  0
  127.4127  135.3374  159.3830 H   0  0  0  0  0  0  0  0  0  0  0  0
  130.0564  135.7902  158.5102 H   0  0  0  0  0  0  0  0  0  0  0  0
  130.6763  137.4111  163.4910 H   0  0  0  0  0  0  0  0  0  0  0  0
  132.8646  138.8114  162.8223 H   0  0  0  0  0  0  0  0  0  0  0  0
  134.3559  138.2056  157.7932 H   0  0  0  0  0  0  0  0  0  0  0  0
  136.2195  139.7450  158.2461 H   0  0  0  0  0  0  0  0  0  0  0  0
  136.4772  140.7138  160.5210 H   0  0  0  0  0  0  0  0  0  0  0  0
  134.2681  141.1537  162.8581 H   0  0  0  0  0  0  0  0  0  0  0  0
  137.0237  139.6564  162.8237 H   0  0  0  0  0  0  0  0  0  0  0  0
  136.5134  140.9617  164.0227 H   0  0  0  0  0  0  0  0  0  0  0  0
  134.5683  139.5147  164.7708 H   0  0  0  0  0  0  0  0  0  0  0  0
  135.0775  138.2092  163.5721 H   0  0  0  0  0  0  0  0  0  0  0  0
  129.3607  131.6544  160.4874 H   0  0  0  0  0  0  0  0  0  0  0  0
  130.5032  129.7854  159.3629 H   0  0  0  0  0  0  0  0  0  0  0  0
  131.7336  130.1772  157.2662 H   0  0  0  0  0  0  0  0  0  0  0  0
  131.8164  132.4366  156.2910 H   0  0  0  0  0  0  0  0  0  0  0  0
  130.6679  134.3041  157.4118 H   0  0  0  0  0  0  0  0  0  0  0  0
  126.3963  134.6176  161.4672 H   0  0  0  0  0  0  0  0  0  0  0  0
  124.9884  132.9375  162.5889 H   0  0  0  0  0  0  0  0  0  0  0  0
  1 33  2  0
  1  2  1  0
  1 34  1  0
  2  3  2  0
  2 35  1  0
  3  4  1  0
  3 36  1  0
  4  5  1  0
  4 32  2  0
  5  6  1  0
  5 37  1  0
  5 38  1  0
  6  7  1  1
  6  8  1  0
  6 26  1  0
  8 39  1  0
  9  8  1  0
  9 24  2  0
  9 10  1  0
 10 11  1  0
 10 12  1  0
 12 13  2  0
 12 40  1  0
 13 14  1  0
 13 24  1  0
 14 15  1  0
 14 41  1  0
 15 20  1  0
 15 16  2  0
 16 17  1  0
 17 18  2  0
 17 42  1  0
 18 19  1  0
 18 43  1  0
 19 20  2  0
 19 44  1  0
 20 21  1  0
 21 23  1  0
 21 22  1  0
 21 45  1  0
 22 23  1  0
 22 46  1  0
 22 47  1  0
 23 48  1  0
 23 49  1  0
 24 25  1  0
 26 31  1  0
 26 27  2  0
 27 28  1  0
 27 50  1  0
 28 29  2  0
 28 51  1  0
 29 30  1  0
 29 52  1  0
 30 31  2  0
 30 53  1  0
 31 54  1  0
 32 33  1  0
 32 55  1  0
 33 56  1  0
M  CHG  1  24   1
M  END
>  <DOCK_score>  (1) 
-60.872097

>  <SMILES>  (1) 
c1ccc(C[C@H](Nc2[nH]cc(Nc3ncccc3C3CC3)[nH+]2)c2ccccc2)cc1

$$$$
