CCc1cccc([C@@H](Nc2[nH]cc(-c3ccc(Br)cc3)[nH+]2)c2ccc(C3CC3)cc2)c1
     RDKit          3D

 58 62  0  0  1  0  0  0  0  0999 V2000
  125.6322  131.6156  161.1518 C   0  0  0  0  0  0  0  0  0  0  0  0
  125.7373  132.9135  161.9552 C   0  0  0  0  0  0  0  0  0  0  0  0
  126.3485  133.9890  161.0945 C   0  0  0  0  0  0  0  0  0  0  0  0
  125.5377  134.8024  160.3255 C   0  0  0  0  0  0  0  0  0  0  0  0
  126.0983  135.7887  159.5353 C   0  0  0  0  0  0  0  0  0  0  0  0
  127.4698  135.9614  159.5147 C   0  0  0  0  0  0  0  0  0  0  0  0
  128.2804  135.1480  160.2839 C   0  0  0  0  0  0  0  0  0  0  0  0
  129.7755  135.3360  160.2612 C   0  0  1  0  0  0  0  0  0  0  0  0
  130.2432  134.6089  160.9251 H   0  0  0  0  0  0  0  0  0  0  0  0
  130.2714  135.1410  158.8965 N   0  0  0  0  0  0  0  0  0  0  0  0
  130.0769  133.9294  158.2558 C   0  0  0  0  0  0  0  0  0  0  0  0
  129.4382  132.8484  158.7810 N   0  0  0  0  0  0  0  0  0  0  0  0
  129.0411  132.7888  159.6640 H   0  0  0  0  0  0  0  0  0  0  0  0
  129.4602  131.8573  157.8300 C   0  0  0  0  0  0  0  0  0  0  0  0
  130.1110  132.3606  156.7521 C   0  0  0  0  0  0  0  0  0  0  0  0
  130.3760  131.6451  155.4799 C   0  0  0  0  0  0  0  0  0  0  0  0
  129.8693  132.1412  154.2800 C   0  0  0  0  0  0  0  0  0  0  0  0
  130.1237  131.4750  153.0986 C   0  0  0  0  0  0  0  0  0  0  0  0
  130.8706  130.3099  153.1053 C   0  0  0  0  0  0  0  0  0  0  0  0
  131.2077  129.3972  151.4837 Br  0  0  0  0  0  0  0  0  0  0  0  0
  131.3713  129.8098  154.2950 C   0  0  0  0  0  0  0  0  0  0  0  0
  131.1277  130.4714  155.4811 C   0  0  0  0  0  0  0  0  0  0  0  0
  130.4725  133.6359  157.0411 N   0  0  0  0  0  0  0  0  0  0  0  0
  130.9498  134.2341  156.4452 H   0  0  0  0  0  0  0  0  0  0  0  0
  130.1136  136.7296  160.7243 C   0  0  0  0  0  0  0  0  0  0  0  0
  130.3351  136.9773  162.0661 C   0  0  0  0  0  0  0  0  0  0  0  0
  130.6460  138.2556  162.4910 C   0  0  0  0  0  0  0  0  0  0  0  0
  130.7333  139.2864  161.5741 C   0  0  0  0  0  0  0  0  0  0  0  0
  131.0715  140.6801  162.0372 C   0  0  0  0  0  0  0  0  0  0  0  0
  130.2472  141.2620  163.1872 C   0  0  0  0  0  0  0  0  0  0  0  0
  130.0482  141.7837  161.7620 C   0  0  0  0  0  0  0  0  0  0  0  0
  130.5100  139.0391  160.2326 C   0  0  0  0  0  0  0  0  0  0  0  0
  130.1997  137.7608  159.8078 C   0  0  0  0  0  0  0  0  0  0  0  0
  127.7201  134.1582  161.0699 C   0  0  0  0  0  0  0  0  0  0  0  0
  125.0048  131.7803  160.2759 H   0  0  0  0  0  0  0  0  0  0  0  0
  126.6269  131.3042  160.8329 H   0  0  0  0  0  0  0  0  0  0  0  0
  125.1901  130.8377  161.7744 H   0  0  0  0  0  0  0  0  0  0  0  0
  126.3648  132.7487  162.8311 H   0  0  0  0  0  0  0  0  0  0  0  0
  124.7426  133.2249  162.2742 H   0  0  0  0  0  0  0  0  0  0  0  0
  124.4663  134.6670  160.3416 H   0  0  0  0  0  0  0  0  0  0  0  0
  125.4650  136.4240  158.9340 H   0  0  0  0  0  0  0  0  0  0  0  0
  127.9079  136.7316  158.8973 H   0  0  0  0  0  0  0  0  0  0  0  0
  130.7362  135.8609  158.4419 H   0  0  0  0  0  0  0  0  0  0  0  0
  129.0391  130.8671  157.9229 H   0  0  0  0  0  0  0  0  0  0  0  0
  129.2825  133.0480  154.2742 H   0  0  0  0  0  0  0  0  0  0  0  0
  129.7350  131.8609  152.1676 H   0  0  0  0  0  0  0  0  0  0  0  0
  131.9537  128.9002  154.2948 H   0  0  0  0  0  0  0  0  0  0  0  0
  131.5190  130.0806  156.4087 H   0  0  0  0  0  0  0  0  0  0  0  0
  130.2672  136.1718  162.7824 H   0  0  0  0  0  0  0  0  0  0  0  0
  130.8248  138.4480  163.5385 H   0  0  0  0  0  0  0  0  0  0  0  0
  132.1268  140.9485  161.9883 H   0  0  0  0  0  0  0  0  0  0  0  0
  129.4602  140.6367  163.6089 H   0  0  0  0  0  0  0  0  0  0  0  0
  130.7599  141.9135  163.8948 H   0  0  0  0  0  0  0  0  0  0  0  0
  130.4304  142.7785  161.5325 H   0  0  0  0  0  0  0  0  0  0  0  0
  129.1306  141.5018  161.2457 H   0  0  0  0  0  0  0  0  0  0  0  0
  130.5775  139.8447  159.5163 H   0  0  0  0  0  0  0  0  0  0  0  0
  130.0248  137.5676  158.7596 H   0  0  0  0  0  0  0  0  0  0  0  0
  128.3537  133.5197  161.6675 H   0  0  0  0  0  0  0  0  0  0  0  0
  1  2  1  0
  1 35  1  0
  1 36  1  0
  1 37  1  0
  2  3  1  0
  2 38  1  0
  2 39  1  0
  3 34  2  0
  3  4  1  0
  4  5  2  0
  4 40  1  0
  5  6  1  0
  5 41  1  0
  6  7  2  0
  6 42  1  0
  7  8  1  0
  7 34  1  0
  8  9  1  1
  8 10  1  0
  8 25  1  0
 10 43  1  0
 11 10  1  0
 11 23  2  0
 11 12  1  0
 12 13  1  0
 12 14  1  0
 14 15  2  0
 14 44  1  0
 15 16  1  0
 15 23  1  0
 16 22  1  0
 16 17  2  0
 17 18  1  0
 17 45  1  0
 18 19  2  0
 18 46  1  0
 19 20  1  0
 19 21  1  0
 21 22  2  0
 21 47  1  0
 22 48  1  0
 23 24  1  0
 25 33  1  0
 25 26  2  0
 26 27  1  0
 26 49  1  0
 27 28  2  0
 27 50  1  0
 28 29  1  0
 28 32  1  0
 29 31  1  0
 29 30  1  0
 29 51  1  0
 30 31  1  0
 30 52  1  0
 30 53  1  0
 31 54  1  0
 31 55  1  0
 32 33  2  0
 32 56  1  0
 33 57  1  0
 34 58  1  0
M  CHG  1  23   1
M  END
>  <DOCK_score>  (1) 
-64.740128

>  <SMILES>  (1) 
CCc1cccc([C@@H](Nc2[nH]cc(-c3ccc(Br)cc3)[nH+]2)c2ccc(C3CC3)cc2)c1

$$$$
