Cc1ccc([N+](=O)[O-])cc1CNC(N[C@H]1C[C@@H](O)C1)=[NH+][C@@H]1C=C[C@@H](O)[C@H]1Cl
     RDKit          3D

 51 53  0  0  1  0  0  0  0  0999 V2000
  129.1197  135.1605  158.7571 C   0  0  0  0  0  0  0  0  0  0  0  0
  129.4781  133.7127  158.5415 C   0  0  0  0  0  0  0  0  0  0  0  0
  130.1509  133.3303  157.3960 C   0  0  0  0  0  0  0  0  0  0  0  0
  130.4792  132.0023  157.1980 C   0  0  0  0  0  0  0  0  0  0  0  0
  130.1356  131.0566  158.1460 C   0  0  0  0  0  0  0  0  0  0  0  0
  130.4871  129.6344  157.9341 N   0  0  0  0  0  0  0  0  0  0  0  0
  131.0791  129.2973  156.9245 O   0  0  0  0  0  0  0  0  0  0  0  0
  130.1843  128.8013  158.7694 O   0  0  0  0  0  0  0  0  0  0  0  0
  129.4632  131.4389  159.2915 C   0  0  0  0  0  0  0  0  0  0  0  0
  129.1298  132.7664  159.4868 C   0  0  0  0  0  0  0  0  0  0  0  0
  128.3914  133.1823  160.7329 C   0  0  0  0  0  0  0  0  0  0  0  0
  129.3561  133.5193  161.7827 N   0  0  0  0  0  0  0  0  0  0  0  0
  129.0376  134.4610  162.7323 C   0  0  0  0  0  0  0  0  0  0  0  0
  127.7282  134.6389  163.1120 N   0  0  0  0  0  0  0  0  0  0  0  0
  127.3890  135.6425  164.1240 C   0  0  1  0  0  0  0  0  0  0  0  0
  128.1889  135.8020  164.8469 H   0  0  0  0  0  0  0  0  0  0  0  0
  126.8229  136.9451  163.5342 C   0  0  0  0  0  0  0  0  0  0  0  0
  125.4316  136.2920  163.6386 C   0  0  1  0  0  0  0  0  0  0  0  0
  124.6512  136.9773  163.9695 H   0  0  0  0  0  0  0  0  0  0  0  0
  125.0592  135.5457  162.4782 O   0  0  0  0  0  0  0  0  0  0  0  0
  126.0100  135.4250  164.7692 C   0  0  0  0  0  0  0  0  0  0  0  0
  129.9769  135.1851  163.2729 N   0  0  0  0  0  0  0  0  0  0  0  0
  129.7523  135.8495  163.9429 H   0  0  0  0  0  0  0  0  0  0  0  0
  131.3721  134.9956  162.8681 C   0  0  2  0  0  0  0  0  0  0  0  0
  131.6908  133.9736  163.0732 H   0  0  0  0  0  0  0  0  0  0  0  0
  132.2666  135.9799  163.5851 C   0  0  0  0  0  0  0  0  0  0  0  0
  132.6009  136.9686  162.7966 C   0  0  0  0  0  0  0  0  0  0  0  0
  131.9856  136.8049  161.4262 C   0  0  1  0  0  0  0  0  0  0  0  0
  131.1226  137.4613  161.3146 H   0  0  0  0  0  0  0  0  0  0  0  0
  132.9528  137.0785  160.4105 O   0  0  0  0  0  0  0  0  0  0  0  0
  131.5467  135.3233  161.3668 C   0  0  1  0  0  0  0  0  0  0  0  0
  130.6040  135.2151  160.8306 H   0  0  0  0  0  0  0  0  0  0  0  0
  132.8304  134.2971  160.6255 Cl  0  0  0  0  0  0  0  0  0  0  0  0
  128.1356  135.3584  158.3323 H   0  0  0  0  0  0  0  0  0  0  0  0
  129.1042  135.3757  159.8256 H   0  0  0  0  0  0  0  0  0  0  0  0
  129.8602  135.7946  158.2695 H   0  0  0  0  0  0  0  0  0  0  0  0
  130.4198  134.0691  156.6555 H   0  0  0  0  0  0  0  0  0  0  0  0
  131.0046  131.7036  156.3029 H   0  0  0  0  0  0  0  0  0  0  0  0
  129.1944  130.7001  160.0320 H   0  0  0  0  0  0  0  0  0  0  0  0
  127.7726  134.0529  160.5150 H   0  0  0  0  0  0  0  0  0  0  0  0
  127.7583  132.3620  161.0710 H   0  0  0  0  0  0  0  0  0  0  0  0
  130.2196  133.0780  161.8077 H   0  0  0  0  0  0  0  0  0  0  0  0
  127.0290  134.1002  162.7099 H   0  0  0  0  0  0  0  0  0  0  0  0
  126.9491  137.8101  164.1853 H   0  0  0  0  0  0  0  0  0  0  0  0
  127.1418  137.1352  162.5095 H   0  0  0  0  0  0  0  0  0  0  0  0
  124.6946  136.0857  161.7636 H   0  0  0  0  0  0  0  0  0  0  0  0
  125.6733  134.3887  164.7407 H   0  0  0  0  0  0  0  0  0  0  0  0
  125.9144  135.8752  165.7572 H   0  0  0  0  0  0  0  0  0  0  0  0
  132.5859  135.8795  164.6120 H   0  0  0  0  0  0  0  0  0  0  0  0
  133.2340  137.7937  163.0874 H   0  0  0  0  0  0  0  0  0  0  0  0
  132.6346  136.9197  159.5113 H   0  0  0  0  0  0  0  0  0  0  0  0
  1  2  1  0
  1 34  1  0
  1 35  1  0
  1 36  1  0
  2 10  2  0
  2  3  1  0
  3  4  2  0
  3 37  1  0
  4  5  1  0
  4 38  1  0
  5  6  1  0
  5  9  2  0
  6  7  2  0
  6  8  1  0
  9 10  1  0
  9 39  1  0
 10 11  1  0
 11 12  1  0
 11 40  1  0
 11 41  1  0
 12 42  1  0
 13 12  1  0
 13 14  1  0
 13 22  2  0
 14 15  1  0
 14 43  1  0
 15 16  1  1
 15 21  1  0
 15 17  1  0
 17 18  1  0
 17 44  1  0
 17 45  1  0
 18 19  1  1
 18 20  1  0
 18 21  1  0
 20 46  1  0
 21 47  1  0
 21 48  1  0
 22 23  1  0
 22 24  1  0
 24 25  1  6
 24 31  1  0
 24 26  1  0
 26 27  2  0
 26 49  1  0
 27 28  1  0
 27 50  1  0
 28 29  1  1
 28 30  1  0
 28 31  1  0
 30 51  1  0
 31 32  1  6
 31 33  1  0
M  CHG  3   6   1   8  -1  22   1
M  END
>  <DOCK_score>  (1) 
-43.107216

>  <SMILES>  (1) 
Cc1ccc([N+](=O)[O-])cc1CNC(N[C@H]1C[C@@H](O)C1)=[NH+][C@@H]1C=C[C@@H](O)[C@H]1Cl

$$$$
