Cc1ccc(-c2ccc(-c3c[nH]c(NC4c5cc(O)ccc5-c5ccc(O)cc54)[nH+]3)cc2)cc1
     RDKit          3D

 58 63  0  0  1  0  0  0  0  0999 V2000
  137.9902  142.9562  166.3749 C   0  0  0  0  0  0  0  0  0  0  0  0
  137.0568  142.0546  165.6086 C   0  0  0  0  0  0  0  0  0  0  0  0
  136.6404  142.4131  164.3390 C   0  0  0  0  0  0  0  0  0  0  0  0
  135.7857  141.5914  163.6327 C   0  0  0  0  0  0  0  0  0  0  0  0
  135.3421  140.3984  164.2008 C   0  0  0  0  0  0  0  0  0  0  0  0
  134.4186  139.5142  163.4492 C   0  0  0  0  0  0  0  0  0  0  0  0
  133.5089  138.7110  164.1364 C   0  0  0  0  0  0  0  0  0  0  0  0
  132.6478  137.8933  163.4385 C   0  0  0  0  0  0  0  0  0  0  0  0
  132.6931  137.8608  162.0447 C   0  0  0  0  0  0  0  0  0  0  0  0
  131.7698  136.9770  161.2935 C   0  0  0  0  0  0  0  0  0  0  0  0
  131.2754  137.2095  160.0516 C   0  0  0  0  0  0  0  0  0  0  0  0
  130.4693  136.1428  159.7375 N   0  0  0  0  0  0  0  0  0  0  0  0
  129.9746  136.0199  158.9122 H   0  0  0  0  0  0  0  0  0  0  0  0
  130.4870  135.2931  160.8008 C   0  0  0  0  0  0  0  0  0  0  0  0
  129.7968  134.0963  160.8879 N   0  0  0  0  0  0  0  0  0  0  0  0
  128.9581  133.6515  159.7721 C   0  0  0  0  0  0  0  0  0  0  0  0
  127.5435  133.4215  160.2447 C   0  0  0  0  0  0  0  0  0  0  0  0
  126.6084  134.2603  160.8086 C   0  0  0  0  0  0  0  0  0  0  0  0
  125.3557  133.7720  161.1549 C   0  0  0  0  0  0  0  0  0  0  0  0
  124.4330  134.6004  161.7105 O   0  0  0  0  0  0  0  0  0  0  0  0
  125.0462  132.4367  160.9337 C   0  0  0  0  0  0  0  0  0  0  0  0
  125.9792  131.5928  160.3712 C   0  0  0  0  0  0  0  0  0  0  0  0
  127.2407  132.0793  160.0207 C   0  0  0  0  0  0  0  0  0  0  0  0
  128.4120  131.4034  159.4099 C   0  0  0  0  0  0  0  0  0  0  0  0
  128.6007  130.0800  159.0050 C   0  0  0  0  0  0  0  0  0  0  0  0
  129.8034  129.6915  158.4555 C   0  0  0  0  0  0  0  0  0  0  0  0
  130.8309  130.6125  158.3018 C   0  0  0  0  0  0  0  0  0  0  0  0
  132.0150  130.2253  157.7590 O   0  0  0  0  0  0  0  0  0  0  0  0
  130.6481  131.9293  158.7023 C   0  0  0  0  0  0  0  0  0  0  0  0
  129.4471  132.3215  159.2526 C   0  0  0  0  0  0  0  0  0  0  0  0
  131.2651  135.7948  161.7284 N   0  0  0  0  0  0  0  0  0  0  0  0
  131.4507  135.3863  162.5883 H   0  0  0  0  0  0  0  0  0  0  0  0
  133.6066  138.6604  161.3577 C   0  0  0  0  0  0  0  0  0  0  0  0
  134.4639  139.4818  162.0558 C   0  0  0  0  0  0  0  0  0  0  0  0
  135.7650  140.0424  165.4804 C   0  0  0  0  0  0  0  0  0  0  0  0
  136.6202  140.8716  166.1773 C   0  0  0  0  0  0  0  0  0  0  0  0
  137.4084  143.6657  166.9632 H   0  0  0  0  0  0  0  0  0  0  0  0
  138.6110  142.3556  167.0398 H   0  0  0  0  0  0  0  0  0  0  0  0
  138.6262  143.4991  165.6758 H   0  0  0  0  0  0  0  0  0  0  0  0
  136.9845  143.3378  163.9001 H   0  0  0  0  0  0  0  0  0  0  0  0
  135.4609  141.8725  162.6417 H   0  0  0  0  0  0  0  0  0  0  0  0
  133.4769  138.7329  165.2157 H   0  0  0  0  0  0  0  0  0  0  0  0
  131.9403  137.2746  163.9704 H   0  0  0  0  0  0  0  0  0  0  0  0
  131.4789  138.0676  159.4283 H   0  0  0  0  0  0  0  0  0  0  0  0
  129.8684  133.5524  161.6878 H   0  0  0  0  0  0  0  0  0  0  0  0
  128.9712  134.3938  158.9741 H   0  0  0  0  0  0  0  0  0  0  0  0
  126.8496  135.2989  160.9805 H   0  0  0  0  0  0  0  0  0  0  0  0
  124.7400  135.5102  161.8255 H   0  0  0  0  0  0  0  0  0  0  0  0
  124.0713  132.0582  161.2035 H   0  0  0  0  0  0  0  0  0  0  0  0
  125.7348  130.5546  160.2011 H   0  0  0  0  0  0  0  0  0  0  0  0
  127.8038  129.3607  159.1229 H   0  0  0  0  0  0  0  0  0  0  0  0
  129.9468  128.6676  158.1432 H   0  0  0  0  0  0  0  0  0  0  0  0
  132.6682  130.9353  157.6928 H   0  0  0  0  0  0  0  0  0  0  0  0
  131.4473  132.6459  158.5833 H   0  0  0  0  0  0  0  0  0  0  0  0
  133.6419  138.6350  160.2787 H   0  0  0  0  0  0  0  0  0  0  0  0
  135.1715  140.1006  161.5240 H   0  0  0  0  0  0  0  0  0  0  0  0
  135.4248  139.1190  165.9253 H   0  0  0  0  0  0  0  0  0  0  0  0
  136.9488  140.5966  167.1685 H   0  0  0  0  0  0  0  0  0  0  0  0
  1  2  1  0
  1 37  1  0
  1 38  1  0
  1 39  1  0
  2 36  2  0
  2  3  1  0
  3  4  2  0
  3 40  1  0
  4  5  1  0
  4 41  1  0
  5  6  1  0
  5 35  2  0
  6 34  1  0
  6  7  2  0
  7  8  1  0
  7 42  1  0
  8  9  2  0
  8 43  1  0
  9 10  1  0
  9 33  1  0
 10 31  1  0
 10 11  2  0
 11 12  1  0
 11 44  1  0
 12 13  1  0
 12 14  1  0
 14 15  1  0
 14 31  2  0
 15 16  1  0
 15 45  1  0
 16 30  1  0
 16 17  1  0
 16 46  1  0
 17 23  1  0
 17 18  2  0
 18 19  1  0
 18 47  1  0
 19 20  1  0
 19 21  2  0
 20 48  1  0
 21 22  1  0
 21 49  1  0
 22 23  2  0
 22 50  1  0
 23 24  1  0
 24 30  2  0
 24 25  1  0
 25 26  2  0
 25 51  1  0
 26 27  1  0
 26 52  1  0
 27 28  1  0
 27 29  2  0
 28 53  1  0
 29 30  1  0
 29 54  1  0
 31 32  1  0
 33 34  2  0
 33 55  1  0
 34 56  1  0
 35 36  1  0
 35 57  1  0
 36 58  1  0
M  CHG  1  31   1
M  END
>  <DOCK_score>  (1) 
-43.67075

>  <SMILES>  (1) 
Cc1ccc(-c2ccc(-c3c[nH]c(NC4c5cc(O)ccc5-c5ccc(O)cc54)[nH+]3)cc2)cc1

$$$$
