O=C1CC[C@H]([NH+]=C(NC[C@H]2C=CCCC2)NC2CC=CC2)CN1
     RDKit          3D

 52 54  0  0  1  0  0  0  0  0999 V2000
  124.3644  133.9463  161.7744 O   0  0  0  0  0  0  0  0  0  0  0  0
  125.4924  134.2564  161.4547 C   0  0  0  0  0  0  0  0  0  0  0  0
  126.4162  133.1760  160.9703 C   0  0  0  0  0  0  0  0  0  0  0  0
  127.8662  133.6619  161.0368 C   0  0  0  0  0  0  0  0  0  0  0  0
  127.9445  135.0447  160.3787 C   0  0  2  0  0  0  0  0  0  0  0  0
  127.4986  135.0026  159.3850 H   0  0  0  0  0  0  0  0  0  0  0  0
  129.3456  135.4594  160.2716 N   0  0  0  0  0  0  0  0  0  0  0  0
  129.6462  136.2705  160.7106 H   0  0  0  0  0  0  0  0  0  0  0  0
  130.1881  134.7384  159.5867 C   0  0  0  0  0  0  0  0  0  0  0  0
  131.5163  134.7115  159.9409 N   0  0  0  0  0  0  0  0  0  0  0  0
  131.9047  134.8930  161.3418 C   0  0  0  0  0  0  0  0  0  0  0  0
  133.2842  135.5512  161.4075 C   0  0  1  0  0  0  0  0  0  0  0  0
  134.0129  134.9135  160.9070 H   0  0  0  0  0  0  0  0  0  0  0  0
  133.2331  136.8835  160.7189 C   0  0  0  0  0  0  0  0  0  0  0  0
  133.7896  137.9587  161.1771 C   0  0  0  0  0  0  0  0  0  0  0  0
  134.5556  138.0251  162.4658 C   0  0  0  0  0  0  0  0  0  0  0  0
  134.9425  136.6167  162.9223 C   0  0  0  0  0  0  0  0  0  0  0  0
  133.6918  135.7299  162.8716 C   0  0  0  0  0  0  0  0  0  0  0  0
  129.7487  134.0047  158.5104 N   0  0  0  0  0  0  0  0  0  0  0  0
  130.6958  133.1943  157.7406 C   0  0  0  0  0  0  0  0  0  0  0  0
  129.9583  132.3070  156.7110 C   0  0  0  0  0  0  0  0  0  0  0  0
  130.7295  131.0077  156.7014 C   0  0  0  0  0  0  0  0  0  0  0  0
  131.4994  130.9103  157.7509 C   0  0  0  0  0  0  0  0  0  0  0  0
  131.3698  132.1286  158.6355 C   0  0  0  0  0  0  0  0  0  0  0  0
  127.1786  136.0441  161.2465 C   0  0  0  0  0  0  0  0  0  0  0  0
  125.8461  135.5385  161.5516 N   0  0  0  0  0  0  0  0  0  0  0  0
  126.1667  132.9211  159.9403 H   0  0  0  0  0  0  0  0  0  0  0  0
  126.3008  132.2935  161.5998 H   0  0  0  0  0  0  0  0  0  0  0  0
  128.5118  132.9644  160.5033 H   0  0  0  0  0  0  0  0  0  0  0  0
  128.1828  133.7323  162.0775 H   0  0  0  0  0  0  0  0  0  0  0  0
  132.1963  134.5726  159.2632 H   0  0  0  0  0  0  0  0  0  0  0  0
  131.1743  135.5293  161.8418 H   0  0  0  0  0  0  0  0  0  0  0  0
  131.9408  133.9228  161.8374 H   0  0  0  0  0  0  0  0  0  0  0  0
  132.6983  136.9496  159.7829 H   0  0  0  0  0  0  0  0  0  0  0  0
  133.6966  138.8642  160.5960 H   0  0  0  0  0  0  0  0  0  0  0  0
  135.4584  138.6181  162.3194 H   0  0  0  0  0  0  0  0  0  0  0  0
  133.9361  138.4933  163.2307 H   0  0  0  0  0  0  0  0  0  0  0  0
  135.7057  136.2127  162.2573 H   0  0  0  0  0  0  0  0  0  0  0  0
  135.3274  136.6546  163.9414 H   0  0  0  0  0  0  0  0  0  0  0  0
  132.8813  136.2078  163.4219 H   0  0  0  0  0  0  0  0  0  0  0  0
  133.9138  134.7577  163.3114 H   0  0  0  0  0  0  0  0  0  0  0  0
  128.8116  134.0236  158.2606 H   0  0  0  0  0  0  0  0  0  0  0  0
  131.4403  133.8238  157.2533 H   0  0  0  0  0  0  0  0  0  0  0  0
  128.9291  132.1352  157.0260 H   0  0  0  0  0  0  0  0  0  0  0  0
  129.9822  132.7701  155.7246 H   0  0  0  0  0  0  0  0  0  0  0  0
  130.6540  130.2581  155.9276 H   0  0  0  0  0  0  0  0  0  0  0  0
  132.1445  130.0698  157.9596 H   0  0  0  0  0  0  0  0  0  0  0  0
  132.3536  132.4702  158.9576 H   0  0  0  0  0  0  0  0  0  0  0  0
  130.7428  131.9060  159.4989 H   0  0  0  0  0  0  0  0  0  0  0  0
  127.7240  136.2061  162.1763 H   0  0  0  0  0  0  0  0  0  0  0  0
  127.0914  136.9911  160.7138 H   0  0  0  0  0  0  0  0  0  0  0  0
  125.1743  136.1745  161.8435 H   0  0  0  0  0  0  0  0  0  0  0  0
  1  2  2  0
  2 26  1  0
  2  3  1  0
  3  4  1  0
  3 27  1  0
  3 28  1  0
  4  5  1  0
  4 29  1  0
  4 30  1  0
  5  6  1  6
  5  7  1  0
  5 25  1  0
  7  8  1  0
  9  7  2  0
  9 10  1  0
  9 19  1  0
 10 11  1  0
 10 31  1  0
 11 12  1  0
 11 32  1  0
 11 33  1  0
 12 13  1  6
 12 18  1  0
 12 14  1  0
 14 15  2  0
 14 34  1  0
 15 16  1  0
 15 35  1  0
 16 17  1  0
 16 36  1  0
 16 37  1  0
 17 18  1  0
 17 38  1  0
 17 39  1  0
 18 40  1  0
 18 41  1  0
 19 20  1  0
 19 42  1  0
 20 24  1  0
 20 21  1  0
 20 43  1  0
 21 22  1  0
 21 44  1  0
 21 45  1  0
 22 23  2  0
 22 46  1  0
 23 24  1  0
 23 47  1  0
 24 48  1  0
 24 49  1  0
 25 26  1  0
 25 50  1  0
 25 51  1  0
 26 52  1  0
M  CHG  1   7   1
M  END
>  <DOCK_score>  (1) 
-43.622791

>  <SMILES>  (1) 
O=C1CC[C@H]([NH+]=C(NC[C@H]2C=CCCC2)NC2CC=CC2)CN1

$$$$
