CCc1ccc(-c2c[nH]c(NCC[C@@H]3CCC=C3c3cc(CO)ccc3O)[nH+]2)cc1
     RDKit          3D

 60 63  0  0  1  0  0  0  0  0999 V2000
  130.2054  128.3050  151.7668 C   0  0  0  0  0  0  0  0  0  0  0  0
  131.2339  129.4244  151.9380 C   0  0  0  0  0  0  0  0  0  0  0  0
  130.9532  130.1738  153.2151 C   0  0  0  0  0  0  0  0  0  0  0  0
  131.5434  129.7654  154.3975 C   0  0  0  0  0  0  0  0  0  0  0  0
  131.2899  130.4479  155.5699 C   0  0  0  0  0  0  0  0  0  0  0  0
  130.4375  131.5506  155.5609 C   0  0  0  0  0  0  0  0  0  0  0  0
  130.1613  132.2881  156.8179 C   0  0  0  0  0  0  0  0  0  0  0  0
  129.5960  131.7729  157.9377 C   0  0  0  0  0  0  0  0  0  0  0  0
  129.5283  132.7929  158.8555 N   0  0  0  0  0  0  0  0  0  0  0  0
  129.1730  132.7327  159.7561 H   0  0  0  0  0  0  0  0  0  0  0  0
  130.0467  133.9046  158.2661 C   0  0  0  0  0  0  0  0  0  0  0  0
  130.1575  135.1525  158.8553 N   0  0  0  0  0  0  0  0  0  0  0  0
  129.6942  135.3570  160.2300 C   0  0  0  0  0  0  0  0  0  0  0  0
  130.8427  135.0790  161.2019 C   0  0  0  0  0  0  0  0  0  0  0  0
  130.3589  135.2927  162.6376 C   0  0  2  0  0  0  0  0  0  0  0  0
  129.7088  136.1659  162.6921 H   0  0  0  0  0  0  0  0  0  0  0  0
  131.5634  135.4579  163.5924 C   0  0  0  0  0  0  0  0  0  0  0  0
  131.7619  134.0060  164.0935 C   0  0  0  0  0  0  0  0  0  0  0  0
  130.4069  133.3549  163.9394 C   0  0  0  0  0  0  0  0  0  0  0  0
  129.6328  134.0648  163.1362 C   0  0  0  0  0  0  0  0  0  0  0  0
  128.2459  133.7063  162.7754 C   0  0  0  0  0  0  0  0  0  0  0  0
  127.9802  132.5025  162.1221 C   0  0  0  0  0  0  0  0  0  0  0  0
  126.6824  132.1702  161.7932 C   0  0  0  0  0  0  0  0  0  0  0  0
  126.3956  130.8669  161.0931 C   0  0  0  0  0  0  0  0  0  0  0  0
  127.3381  130.6767  160.0360 O   0  0  0  0  0  0  0  0  0  0  0  0
  125.6430  133.0322  162.0981 C   0  0  0  0  0  0  0  0  0  0  0  0
  125.8947  134.2302  162.7395 C   0  0  0  0  0  0  0  0  0  0  0  0
  127.1922  134.5753  163.0819 C   0  0  0  0  0  0  0  0  0  0  0  0
  127.4407  135.7525  163.7124 O   0  0  0  0  0  0  0  0  0  0  0  0
  130.4239  133.5990  157.0487 N   0  0  0  0  0  0  0  0  0  0  0  0
  130.8265  134.2122  156.4139 H   0  0  0  0  0  0  0  0  0  0  0  0
  129.8413  131.9543  154.3676 C   0  0  0  0  0  0  0  0  0  0  0  0
  130.1069  131.2681  153.2000 C   0  0  0  0  0  0  0  0  0  0  0  0
  130.4086  127.7631  150.8432 H   0  0  0  0  0  0  0  0  0  0  0  0
  130.2705  127.6197  152.6121 H   0  0  0  0  0  0  0  0  0  0  0  0
  129.2046  128.7346  151.7235 H   0  0  0  0  0  0  0  0  0  0  0  0
  131.1690  130.1100  151.0928 H   0  0  0  0  0  0  0  0  0  0  0  0
  132.2349  128.9952  151.9811 H   0  0  0  0  0  0  0  0  0  0  0  0
  132.2039  128.9110  154.4031 H   0  0  0  0  0  0  0  0  0  0  0  0
  131.7508  130.1277  156.4926 H   0  0  0  0  0  0  0  0  0  0  0  0
  129.2648  130.7551  158.0814 H   0  0  0  0  0  0  0  0  0  0  0  0
  130.5419  135.8912  158.3580 H   0  0  0  0  0  0  0  0  0  0  0  0
  129.3573  136.3866  160.3505 H   0  0  0  0  0  0  0  0  0  0  0  0
  128.8680  134.6775  160.4399 H   0  0  0  0  0  0  0  0  0  0  0  0
  131.1795  134.0494  161.0815 H   0  0  0  0  0  0  0  0  0  0  0  0
  131.6688  135.7585  160.9920 H   0  0  0  0  0  0  0  0  0  0  0  0
  132.4430  135.8107  163.0539 H   0  0  0  0  0  0  0  0  0  0  0  0
  131.3186  136.1266  164.4178 H   0  0  0  0  0  0  0  0  0  0  0  0
  132.0666  134.0046  165.1400 H   0  0  0  0  0  0  0  0  0  0  0  0
  132.5021  133.4910  163.4811 H   0  0  0  0  0  0  0  0  0  0  0  0
  130.1109  132.4342  164.4200 H   0  0  0  0  0  0  0  0  0  0  0  0
  128.7890  131.8295  161.8787 H   0  0  0  0  0  0  0  0  0  0  0  0
  126.4781  130.0461  161.8055 H   0  0  0  0  0  0  0  0  0  0  0  0
  125.3869  130.8903  160.6808 H   0  0  0  0  0  0  0  0  0  0  0  0
  127.3207  131.3715  159.3637 H   0  0  0  0  0  0  0  0  0  0  0  0
  124.6301  132.7673  161.8330 H   0  0  0  0  0  0  0  0  0  0  0  0
  125.0791  134.8979  162.9744 H   0  0  0  0  0  0  0  0  0  0  0  0
  128.3753  135.9035  163.9093 H   0  0  0  0  0  0  0  0  0  0  0  0
  129.1766  132.8053  154.3557 H   0  0  0  0  0  0  0  0  0  0  0  0
  129.6495  131.5831  152.2737 H   0  0  0  0  0  0  0  0  0  0  0  0
  1  2  1  0
  1 34  1  0
  1 35  1  0
  1 36  1  0
  2  3  1  0
  2 37  1  0
  2 38  1  0
  3 33  2  0
  3  4  1  0
  4  5  2  0
  4 39  1  0
  5  6  1  0
  5 40  1  0
  6  7  1  0
  6 32  2  0
  7 30  1  0
  7  8  2  0
  8  9  1  0
  8 41  1  0
  9 10  1  0
  9 11  1  0
 11 12  1  0
 11 30  2  0
 12 13  1  0
 12 42  1  0
 13 14  1  0
 13 43  1  0
 13 44  1  0
 14 15  1  0
 14 45  1  0
 14 46  1  0
 15 16  1  6
 15 20  1  0
 15 17  1  0
 17 18  1  0
 17 47  1  0
 17 48  1  0
 18 19  1  0
 18 49  1  0
 18 50  1  0
 19 20  2  0
 19 51  1  0
 20 21  1  0
 21 28  1  0
 21 22  2  0
 22 23  1  0
 22 52  1  0
 23 24  1  0
 23 26  2  0
 24 25  1  0
 24 53  1  0
 24 54  1  0
 25 55  1  0
 26 27  1  0
 26 56  1  0
 27 28  2  0
 27 57  1  0
 28 29  1  0
 29 58  1  0
 30 31  1  0
 32 33  1  0
 32 59  1  0
 33 60  1  0
M  CHG  1  30   1
M  END
>  <DOCK_score>  (1) 
-57.787693

>  <SMILES>  (1) 
CCc1ccc(-c2c[nH]c(NCC[C@@H]3CCC=C3c3cc(CO)ccc3O)[nH+]2)cc1

$$$$
