CC[C@H](C)Nc1cc(Nc2[nH]cc(-c3cccnc3)[nH+]2)ccn1
     RDKit          3D

 44 46  0  0  1  0  0  0  0  0999 V2000
  127.1548  140.9391  164.5627 C   0  0  0  0  0  0  0  0  0  0  0  0
  128.2534  140.3640  163.6664 C   0  0  0  0  0  0  0  0  0  0  0  0
  127.8835  138.9367  163.2581 C   0  0  2  0  0  0  0  0  0  0  0  0
  126.9392  138.9477  162.7138 H   0  0  0  0  0  0  0  0  0  0  0  0
  127.7406  138.0689  164.5100 C   0  0  0  0  0  0  0  0  0  0  0  0
  128.9354  138.3862  162.3998 N   0  0  0  0  0  0  0  0  0  0  0  0
  128.6175  137.4444  161.4276 C   0  0  0  0  0  0  0  0  0  0  0  0
  129.6197  136.9274  160.6178 C   0  0  0  0  0  0  0  0  0  0  0  0
  129.2862  135.9858  159.6495 C   0  0  0  0  0  0  0  0  0  0  0  0
  130.2618  135.4417  158.8167 N   0  0  0  0  0  0  0  0  0  0  0  0
  130.1152  134.1534  158.3273 C   0  0  0  0  0  0  0  0  0  0  0  0
  129.4700  133.1344  158.9580 N   0  0  0  0  0  0  0  0  0  0  0  0
  129.0339  133.1787  159.8233 H   0  0  0  0  0  0  0  0  0  0  0  0
  129.5485  132.0327  158.1422 C   0  0  0  0  0  0  0  0  0  0  0  0
  130.2457  132.4073  157.0408 C   0  0  0  0  0  0  0  0  0  0  0  0
  130.5830  131.5411  155.8847 C   0  0  0  0  0  0  0  0  0  0  0  0
  130.1337  131.8631  154.6007 C   0  0  0  0  0  0  0  0  0  0  0  0
  130.4804  131.0256  153.5548 C   0  0  0  0  0  0  0  0  0  0  0  0
  131.2435  129.9011  153.8127 C   0  0  0  0  0  0  0  0  0  0  0  0
  131.6484  129.6200  155.0360 N   0  0  0  0  0  0  0  0  0  0  0  0
  131.3480  130.3900  156.0620 C   0  0  0  0  0  0  0  0  0  0  0  0
  130.5799  133.7139  157.1833 N   0  0  0  0  0  0  0  0  0  0  0  0
  131.0828  134.2392  156.5413 H   0  0  0  0  0  0  0  0  0  0  0  0
  127.9490  135.5992  159.5332 C   0  0  0  0  0  0  0  0  0  0  0  0
  127.0115  136.1577  160.3737 C   0  0  0  0  0  0  0  0  0  0  0  0
  127.3608  137.0495  161.2832 N   0  0  0  0  0  0  0  0  0  0  0  0
  127.0529  140.3209  165.4546 H   0  0  0  0  0  0  0  0  0  0  0  0
  127.4183  141.9560  164.8535 H   0  0  0  0  0  0  0  0  0  0  0  0
  126.2105  140.9500  164.0184 H   0  0  0  0  0  0  0  0  0  0  0  0
  129.1977  140.3530  164.2107 H   0  0  0  0  0  0  0  0  0  0  0  0
  128.3553  140.9823  162.7744 H   0  0  0  0  0  0  0  0  0  0  0  0
  126.9579  138.4786  165.1486 H   0  0  0  0  0  0  0  0  0  0  0  0
  127.4770  137.0520  164.2191 H   0  0  0  0  0  0  0  0  0  0  0  0
  128.6849  138.0580  165.0542 H   0  0  0  0  0  0  0  0  0  0  0  0
  129.8536  138.6786  162.5098 H   0  0  0  0  0  0  0  0  0  0  0  0
  130.6438  137.2479  160.7409 H   0  0  0  0  0  0  0  0  0  0  0  0
  131.0437  135.9646  158.5796 H   0  0  0  0  0  0  0  0  0  0  0  0
  129.1376  131.0540  158.3416 H   0  0  0  0  0  0  0  0  0  0  0  0
  129.5350  132.7453  154.4286 H   0  0  0  0  0  0  0  0  0  0  0  0
  130.1549  131.2453  152.5487 H   0  0  0  0  0  0  0  0  0  0  0  0
  131.5121  129.2430  152.9996 H   0  0  0  0  0  0  0  0  0  0  0  0
  131.6980  130.1268  157.0493 H   0  0  0  0  0  0  0  0  0  0  0  0
  127.6534  134.8710  158.7923 H   0  0  0  0  0  0  0  0  0  0  0  0
  125.9763  135.8625  160.2876 H   0  0  0  0  0  0  0  0  0  0  0  0
  1  2  1  0
  1 27  1  0
  1 28  1  0
  1 29  1  0
  2  3  1  0
  2 30  1  0
  2 31  1  0
  3  4  1  6
  3  5  1  0
  3  6  1  0
  5 32  1  0
  5 33  1  0
  5 34  1  0
  6  7  1  0
  6 35  1  0
  7 26  2  0
  7  8  1  0
  8  9  2  0
  8 36  1  0
  9 10  1  0
  9 24  1  0
 10 37  1  0
 11 10  1  0
 11 22  2  0
 11 12  1  0
 12 13  1  0
 12 14  1  0
 14 15  2  0
 14 38  1  0
 15 16  1  0
 15 22  1  0
 16 21  1  0
 16 17  2  0
 17 18  1  0
 17 39  1  0
 18 19  2  0
 18 40  1  0
 19 20  1  0
 19 41  1  0
 20 21  2  0
 21 42  1  0
 22 23  1  0
 24 25  2  0
 24 43  1  0
 25 26  1  0
 25 44  1  0
M  CHG  1  22   1
M  END
>  <DOCK_score>  (1) 
-47.466652

>  <SMILES>  (1) 
CC[C@H](C)Nc1cc(Nc2[nH]cc(-c3cccnc3)[nH+]2)ccn1

$$$$
