O[C@@H]1C[C@H]1Nc1ccc(-c2n[nH]cc2C[NH2+][C@@H]2CC23CCCCCC3)o1
     RDKit          3D

 55 59  0  0  1  0  0  0  0  0999 V2000
  127.3146  139.9639  162.8736 O   0  0  0  0  0  0  0  0  0  0  0  0
  126.5648  138.7605  163.0515 C   0  0  2  0  0  0  0  0  0  0  0  0
  125.5058  138.8251  162.8014 H   0  0  0  0  0  0  0  0  0  0  0  0
  126.9634  137.8445  164.2115 C   0  0  0  0  0  0  0  0  0  0  0  0
  127.2776  137.4360  162.7709 C   0  0  1  0  0  0  0  0  0  0  0  0
  128.3184  137.4827  162.4501 H   0  0  0  0  0  0  0  0  0  0  0  0
  126.4845  136.3515  162.1869 N   0  0  0  0  0  0  0  0  0  0  0  0
  127.0914  135.4147  161.3586 C   0  0  0  0  0  0  0  0  0  0  0  0
  126.4717  134.3681  160.7584 C   0  0  0  0  0  0  0  0  0  0  0  0
  127.4510  133.6836  160.0117 C   0  0  0  0  0  0  0  0  0  0  0  0
  128.6235  134.3445  160.2009 C   0  0  0  0  0  0  0  0  0  0  0  0
  129.9275  133.9801  159.6094 C   0  0  0  0  0  0  0  0  0  0  0  0
  130.1575  132.9612  158.8048 N   0  0  0  0  0  0  0  0  0  0  0  0
  131.5195  132.9649  158.4774 N   0  0  0  0  0  0  0  0  0  0  0  0
  131.9682  132.3246  157.9033 H   0  0  0  0  0  0  0  0  0  0  0  0
  132.1000  134.0137  159.0996 C   0  0  0  0  0  0  0  0  0  0  0  0
  131.1471  134.6626  159.8025 C   0  0  0  0  0  0  0  0  0  0  0  0
  131.3511  135.8932  160.6483 C   0  0  0  0  0  0  0  0  0  0  0  0
  131.1439  137.0925  159.8259 N   0  0  0  0  0  0  0  0  0  0  0  0
  130.2045  137.0896  159.4576 H   0  0  0  0  0  0  0  0  0  0  0  0
  131.8042  137.0955  159.0630 H   0  0  0  0  0  0  0  0  0  0  0  0
  131.3428  138.2920  160.6503 C   0  0  2  0  0  0  0  0  0  0  0  0
  130.6768  138.3889  161.5076 H   0  0  0  0  0  0  0  0  0  0  0  0
  131.7660  139.5764  159.9370 C   0  0  0  0  0  0  0  0  0  0  0  0
  132.7790  138.8157  160.8054 C   0  0  0  0  0  0  0  0  0  0  0  0
  133.8605  138.0285  160.0340 C   0  0  0  0  0  0  0  0  0  0  0  0
  135.2331  138.7257  160.0892 C   0  0  0  0  0  0  0  0  0  0  0  0
  135.0744  140.2168  159.9382 C   0  0  0  0  0  0  0  0  0  0  0  0
  135.0171  140.8478  161.3296 C   0  0  0  0  0  0  0  0  0  0  0  0
  133.6784  140.8656  161.9239 C   0  0  0  0  0  0  0  0  0  0  0  0
  133.1583  139.4257  162.1351 C   0  0  0  0  0  0  0  0  0  0  0  0
  128.3911  135.3940  161.0171 O   0  0  0  0  0  0  0  0  0  0  0  0
  128.0998  140.0246  163.4348 H   0  0  0  0  0  0  0  0  0  0  0  0
  126.1664  137.3064  164.7248 H   0  0  0  0  0  0  0  0  0  0  0  0
  127.7971  138.1602  164.8384 H   0  0  0  0  0  0  0  0  0  0  0  0
  125.5358  136.2871  162.3784 H   0  0  0  0  0  0  0  0  0  0  0  0
  125.4257  134.1107  160.8351 H   0  0  0  0  0  0  0  0  0  0  0  0
  127.2995  132.8017  159.4069 H   0  0  0  0  0  0  0  0  0  0  0  0
  133.1436  134.2860  159.0443 H   0  0  0  0  0  0  0  0  0  0  0  0
  132.3659  135.8963  161.0463 H   0  0  0  0  0  0  0  0  0  0  0  0
  130.6377  135.8900  161.4724 H   0  0  0  0  0  0  0  0  0  0  0  0
  131.3784  140.5184  160.3248 H   0  0  0  0  0  0  0  0  0  0  0  0
  131.8969  139.5316  158.8558 H   0  0  0  0  0  0  0  0  0  0  0  0
  133.5538  137.9319  158.9926 H   0  0  0  0  0  0  0  0  0  0  0  0
  133.9510  137.0332  160.4689 H   0  0  0  0  0  0  0  0  0  0  0  0
  135.8612  138.3473  159.2828 H   0  0  0  0  0  0  0  0  0  0  0  0
  135.7079  138.5098  161.0463 H   0  0  0  0  0  0  0  0  0  0  0  0
  135.9243  140.6211  159.3883 H   0  0  0  0  0  0  0  0  0  0  0  0
  134.1514  140.4336  159.4001 H   0  0  0  0  0  0  0  0  0  0  0  0
  135.6824  140.2920  161.9902 H   0  0  0  0  0  0  0  0  0  0  0  0
  135.3796  141.8736  161.2607 H   0  0  0  0  0  0  0  0  0  0  0  0
  133.7186  141.3778  162.8852 H   0  0  0  0  0  0  0  0  0  0  0  0
  132.9977  141.3993  161.2605 H   0  0  0  0  0  0  0  0  0  0  0  0
  133.9387  138.8236  162.6003 H   0  0  0  0  0  0  0  0  0  0  0  0
  132.2841  139.4484  162.7857 H   0  0  0  0  0  0  0  0  0  0  0  0
  1  2  1  0
  1 33  1  0
  2  3  1  6
  2  5  1  0
  2  4  1  0
  4  5  1  0
  4 34  1  0
  4 35  1  0
  5  6  1  1
  5  7  1  0
  7  8  1  0
  7 36  1  0
  8 32  1  0
  8  9  2  0
  9 10  1  0
  9 37  1  0
 10 11  2  0
 10 38  1  0
 11 12  1  0
 11 32  1  0
 12 17  1  0
 12 13  2  0
 13 14  1  0
 14 15  1  0
 14 16  1  0
 16 17  2  0
 16 39  1  0
 17 18  1  0
 18 19  1  0
 18 40  1  0
 18 41  1  0
 19 20  1  0
 19 21  1  0
 19 22  1  0
 22 23  1  1
 22 25  1  0
 22 24  1  0
 24 25  1  0
 24 42  1  0
 24 43  1  0
 25 31  1  0
 25 26  1  0
 26 27  1  0
 26 44  1  0
 26 45  1  0
 27 28  1  0
 27 46  1  0
 27 47  1  0
 28 29  1  0
 28 48  1  0
 28 49  1  0
 29 30  1  0
 29 50  1  0
 29 51  1  0
 30 31  1  0
 30 52  1  0
 30 53  1  0
 31 54  1  0
 31 55  1  0
M  CHG  1  19   1
M  END
>  <DOCK_score>  (1) 
-45.184914

>  <SMILES>  (1) 
O[C@@H]1C[C@H]1Nc1ccc(-c2n[nH]cc2C[NH2+][C@@H]2CC23CCCCCC3)o1

$$$$
