c1ccc(C[C@H](Nc2[nH]cc(-c3ccc(C4CCCC4)cc3)[nH+]2)c2ccccc2)cc1
     RDKit          3D

 61 65  0  0  1  0  0  0  0  0999 V2000
  126.3474  135.9008  160.4209 C   0  0  0  0  0  0  0  0  0  0  0  0
  126.0968  134.5871  160.0709 C   0  0  0  0  0  0  0  0  0  0  0  0
  126.9583  133.9227  159.2181 C   0  0  0  0  0  0  0  0  0  0  0  0
  128.0704  134.5719  158.7154 C   0  0  0  0  0  0  0  0  0  0  0  0
  129.0097  133.8473  157.7860 C   0  0  0  0  0  0  0  0  0  0  0  0
  130.0975  133.1479  158.6037 C   0  0  2  0  0  0  0  0  0  0  0  0
  129.6557  132.7154  159.5013 H   0  0  0  0  0  0  0  0  0  0  0  0
  131.1237  134.1213  158.9848 N   0  0  0  0  0  0  0  0  0  0  0  0
  131.3901  134.3583  160.3226 C   0  0  0  0  0  0  0  0  0  0  0  0
  130.4911  134.2600  161.3394 N   0  0  0  0  0  0  0  0  0  0  0  0
  129.5566  134.0131  161.2581 H   0  0  0  0  0  0  0  0  0  0  0  0
  131.1514  134.5744  162.5022 C   0  0  0  0  0  0  0  0  0  0  0  0
  132.4337  134.8557  162.1629 C   0  0  0  0  0  0  0  0  0  0  0  0
  133.5177  135.2481  163.0963 C   0  0  0  0  0  0  0  0  0  0  0  0
  134.8408  134.9150  162.8116 C   0  0  0  0  0  0  0  0  0  0  0  0
  135.8445  135.2772  163.6866 C   0  0  0  0  0  0  0  0  0  0  0  0
  135.5396  135.9708  164.8442 C   0  0  0  0  0  0  0  0  0  0  0  0
  136.6401  136.3640  165.7956 C   0  0  0  0  0  0  0  0  0  0  0  0
  137.6933  137.2190  165.0609 C   0  0  0  0  0  0  0  0  0  0  0  0
  139.0426  136.7692  165.6741 C   0  0  0  0  0  0  0  0  0  0  0  0
  138.8417  135.2449  165.8616 C   0  0  0  0  0  0  0  0  0  0  0  0
  137.3703  135.1089  166.3046 C   0  0  0  0  0  0  0  0  0  0  0  0
  134.2282  136.3040  165.1319 C   0  0  0  0  0  0  0  0  0  0  0  0
  133.2164  135.9464  164.2643 C   0  0  0  0  0  0  0  0  0  0  0  0
  132.5485  134.7203  160.8178 N   0  0  0  0  0  0  0  0  0  0  0  0
  133.3588  134.8656  160.3050 H   0  0  0  0  0  0  0  0  0  0  0  0
  130.7239  132.0555  157.7758 C   0  0  0  0  0  0  0  0  0  0  0  0
  131.2402  130.9310  158.3921 C   0  0  0  0  0  0  0  0  0  0  0  0
  131.8113  129.9272  157.6325 C   0  0  0  0  0  0  0  0  0  0  0  0
  131.8735  130.0516  156.2571 C   0  0  0  0  0  0  0  0  0  0  0  0
  131.3618  131.1785  155.6412 C   0  0  0  0  0  0  0  0  0  0  0  0
  130.7873  132.1805  156.4006 C   0  0  0  0  0  0  0  0  0  0  0  0
  128.3237  135.8839  159.0695 C   0  0  0  0  0  0  0  0  0  0  0  0
  127.4595  136.5500  159.9182 C   0  0  0  0  0  0  0  0  0  0  0  0
  125.6745  136.4198  161.0875 H   0  0  0  0  0  0  0  0  0  0  0  0
  125.2281  134.0798  160.4641 H   0  0  0  0  0  0  0  0  0  0  0  0
  126.7628  132.8962  158.9450 H   0  0  0  0  0  0  0  0  0  0  0  0
  129.4707  134.5628  157.1050 H   0  0  0  0  0  0  0  0  0  0  0  0
  128.4532  133.1062  157.2123 H   0  0  0  0  0  0  0  0  0  0  0  0
  131.6167  134.5998  158.2999 H   0  0  0  0  0  0  0  0  0  0  0  0
  130.7298  134.5936  163.4964 H   0  0  0  0  0  0  0  0  0  0  0  0
  135.0800  134.3736  161.9082 H   0  0  0  0  0  0  0  0  0  0  0  0
  136.8701  135.0197  163.4670 H   0  0  0  0  0  0  0  0  0  0  0  0
  136.2257  136.9214  166.6356 H   0  0  0  0  0  0  0  0  0  0  0  0
  137.6730  137.0127  163.9908 H   0  0  0  0  0  0  0  0  0  0  0  0
  137.5230  138.2791  165.2494 H   0  0  0  0  0  0  0  0  0  0  0  0
  139.2124  137.2574  166.6339 H   0  0  0  0  0  0  0  0  0  0  0  0
  139.8670  136.9689  164.9896 H   0  0  0  0  0  0  0  0  0  0  0  0
  139.5096  134.8643  166.6343 H   0  0  0  0  0  0  0  0  0  0  0  0
  139.0070  134.7198  164.9208 H   0  0  0  0  0  0  0  0  0  0  0  0
  137.3110  135.0576  167.3918 H   0  0  0  0  0  0  0  0  0  0  0  0
  136.9287  134.2153  165.8635 H   0  0  0  0  0  0  0  0  0  0  0  0
  133.9958  136.8449  166.0374 H   0  0  0  0  0  0  0  0  0  0  0  0
  132.1928  136.2076  164.4898 H   0  0  0  0  0  0  0  0  0  0  0  0
  131.1948  130.8354  159.4669 H   0  0  0  0  0  0  0  0  0  0  0  0
  132.2114  129.0470  158.1136 H   0  0  0  0  0  0  0  0  0  0  0  0
  132.3221  129.2686  155.6638 H   0  0  0  0  0  0  0  0  0  0  0  0
  131.4107  131.2758  154.5667 H   0  0  0  0  0  0  0  0  0  0  0  0
  130.3876  133.0609  155.9194 H   0  0  0  0  0  0  0  0  0  0  0  0
  129.1949  136.3896  158.6801 H   0  0  0  0  0  0  0  0  0  0  0  0
  127.6554  137.5762  160.1918 H   0  0  0  0  0  0  0  0  0  0  0  0
  1 34  2  0
  1  2  1  0
  1 35  1  0
  2  3  2  0
  2 36  1  0
  3  4  1  0
  3 37  1  0
  4  5  1  0
  4 33  2  0
  5  6  1  0
  5 38  1  0
  5 39  1  0
  6  7  1  1
  6  8  1  0
  6 27  1  0
  8 40  1  0
  9  8  1  0
  9 25  2  0
  9 10  1  0
 10 11  1  0
 10 12  1  0
 12 13  2  0
 12 41  1  0
 13 14  1  0
 13 25  1  0
 14 24  1  0
 14 15  2  0
 15 16  1  0
 15 42  1  0
 16 17  2  0
 16 43  1  0
 17 18  1  0
 17 23  1  0
 18 22  1  0
 18 19  1  0
 18 44  1  0
 19 20  1  0
 19 45  1  0
 19 46  1  0
 20 21  1  0
 20 47  1  0
 20 48  1  0
 21 22  1  0
 21 49  1  0
 21 50  1  0
 22 51  1  0
 22 52  1  0
 23 24  2  0
 23 53  1  0
 24 54  1  0
 25 26  1  0
 27 32  1  0
 27 28  2  0
 28 29  1  0
 28 55  1  0
 29 30  2  0
 29 56  1  0
 30 31  1  0
 30 57  1  0
 31 32  2  0
 31 58  1  0
 32 59  1  0
 33 34  1  0
 33 60  1  0
 34 61  1  0
M  CHG  1  25   1
M  END
>  <DOCK_score>  (1) 
-56.194412

>  <SMILES>  (1) 
c1ccc(C[C@H](Nc2[nH]cc(-c3ccc(C4CCCC4)cc3)[nH+]2)c2ccccc2)cc1

$$$$
