Clc1ccc(-c2cccc3cc[nH]c23)c(CNC(NC2CC=CC2)=[NH+][C@H]2[C@@H]3CC=CC[C@@H]32)n1
     RDKit          3D

 62 67  0  0  1  0  0  0  0  0999 V2000
  125.1990  132.5254  161.1567 Cl  0  0  0  0  0  0  0  0  0  0  0  0
  125.6477  133.8983  162.1196 C   0  0  0  0  0  0  0  0  0  0  0  0
  124.8652  134.2549  163.2052 C   0  0  0  0  0  0  0  0  0  0  0  0
  125.2272  135.3499  163.9695 C   0  0  0  0  0  0  0  0  0  0  0  0
  126.3788  136.0576  163.6111 C   0  0  0  0  0  0  0  0  0  0  0  0
  126.8114  137.2391  164.3959 C   0  0  0  0  0  0  0  0  0  0  0  0
  127.6687  137.0827  165.4780 C   0  0  0  0  0  0  0  0  0  0  0  0
  128.0810  138.1818  166.2138 C   0  0  0  0  0  0  0  0  0  0  0  0
  127.6399  139.4458  165.8903 C   0  0  0  0  0  0  0  0  0  0  0  0
  126.7736  139.6259  164.8092 C   0  0  0  0  0  0  0  0  0  0  0  0
  126.1292  140.7954  164.2063 C   0  0  0  0  0  0  0  0  0  0  0  0
  125.3949  140.3495  163.1748 C   0  0  0  0  0  0  0  0  0  0  0  0
  125.5172  138.9910  163.0691 N   0  0  0  0  0  0  0  0  0  0  0  0
  125.0795  138.4427  162.3992 H   0  0  0  0  0  0  0  0  0  0  0  0
  126.3530  138.5183  164.0535 C   0  0  0  0  0  0  0  0  0  0  0  0
  127.1129  135.6355  162.5049 C   0  0  0  0  0  0  0  0  0  0  0  0
  128.3567  136.3858  162.1036 C   0  0  0  0  0  0  0  0  0  0  0  0
  128.9474  135.7549  160.9208 N   0  0  0  0  0  0  0  0  0  0  0  0
  130.0972  136.2690  160.3694 C   0  0  0  0  0  0  0  0  0  0  0  0
  130.6925  137.3751  160.9282 N   0  0  0  0  0  0  0  0  0  0  0  0
  131.9177  137.9229  160.3408 C   0  0  0  0  0  0  0  0  0  0  0  0
  133.1058  136.9510  160.5282 C   0  0  0  0  0  0  0  0  0  0  0  0
  134.2950  137.8448  160.7932 C   0  0  0  0  0  0  0  0  0  0  0  0
  133.9137  139.0493  161.1213 C   0  0  0  0  0  0  0  0  0  0  0  0
  132.4067  139.1596  161.1296 C   0  0  0  0  0  0  0  0  0  0  0  0
  130.6227  135.7076  159.3170 N   0  0  0  0  0  0  0  0  0  0  0  0
  131.4338  136.0703  158.9279 H   0  0  0  0  0  0  0  0  0  0  0  0
  129.9881  134.5290  158.7216 C   0  0  1  0  0  0  0  0  0  0  0  0
  128.9659  134.6727  158.3715 H   0  0  0  0  0  0  0  0  0  0  0  0
  130.8795  133.5751  157.9239 C   0  0  2  0  0  0  0  0  0  0  0  0
  131.9379  133.8175  157.8289 H   0  0  0  0  0  0  0  0  0  0  0  0
  130.2408  132.8620  156.7214 C   0  0  0  0  0  0  0  0  0  0  0  0
  130.1085  131.3948  157.0488 C   0  0  0  0  0  0  0  0  0  0  0  0
  129.6623  131.0138  158.2199 C   0  0  0  0  0  0  0  0  0  0  0  0
  129.2732  132.0362  159.2595 C   0  0  0  0  0  0  0  0  0  0  0  0
  130.3545  133.1272  159.3002 C   0  0  2  0  0  0  0  0  0  0  0  0
  131.0637  133.0550  160.1248 H   0  0  0  0  0  0  0  0  0  0  0  0
  126.7266  134.5894  161.8029 N   0  0  0  0  0  0  0  0  0  0  0  0
  123.9822  133.6844  163.4525 H   0  0  0  0  0  0  0  0  0  0  0  0
  124.6351  135.6505  164.8211 H   0  0  0  0  0  0  0  0  0  0  0  0
  128.0195  136.0968  165.7453 H   0  0  0  0  0  0  0  0  0  0  0  0
  128.7505  138.0459  167.0504 H   0  0  0  0  0  0  0  0  0  0  0  0
  127.9632  140.2968  166.4716 H   0  0  0  0  0  0  0  0  0  0  0  0
  126.2269  141.8213  164.5297 H   0  0  0  0  0  0  0  0  0  0  0  0
  124.7968  140.9709  162.5247 H   0  0  0  0  0  0  0  0  0  0  0  0
  129.0744  136.3641  162.9237 H   0  0  0  0  0  0  0  0  0  0  0  0
  128.0991  137.4196  161.8737 H   0  0  0  0  0  0  0  0  0  0  0  0
  128.5273  134.9744  160.5266 H   0  0  0  0  0  0  0  0  0  0  0  0
  130.3013  137.7927  161.7114 H   0  0  0  0  0  0  0  0  0  0  0  0
  131.7705  138.1635  159.2879 H   0  0  0  0  0  0  0  0  0  0  0  0
  132.9278  136.2934  161.3791 H   0  0  0  0  0  0  0  0  0  0  0  0
  133.2647  136.3664  159.6221 H   0  0  0  0  0  0  0  0  0  0  0  0
  135.3250  137.5286  160.7211 H   0  0  0  0  0  0  0  0  0  0  0  0
  134.5869  139.8605  161.3561 H   0  0  0  0  0  0  0  0  0  0  0  0
  132.0903  140.0766  160.6325 H   0  0  0  0  0  0  0  0  0  0  0  0
  132.0278  139.1324  162.1514 H   0  0  0  0  0  0  0  0  0  0  0  0
  129.2548  133.2841  156.5268 H   0  0  0  0  0  0  0  0  0  0  0  0
  130.8731  132.9884  155.8426 H   0  0  0  0  0  0  0  0  0  0  0  0
  130.3839  130.6540  156.3128 H   0  0  0  0  0  0  0  0  0  0  0  0
  129.5726  129.9609  158.4431 H   0  0  0  0  0  0  0  0  0  0  0  0
  128.3139  132.4808  158.9946 H   0  0  0  0  0  0  0  0  0  0  0  0
  129.2004  131.5564  160.2356 H   0  0  0  0  0  0  0  0  0  0  0  0
  1  2  1  0
  2 38  2  0
  2  3  1  0
  3  4  2  0
  3 39  1  0
  4  5  1  0
  4 40  1  0
  5  6  1  0
  5 16  2  0
  6 15  1  0
  6  7  2  0
  7  8  1  0
  7 41  1  0
  8  9  2  0
  8 42  1  0
  9 10  1  0
  9 43  1  0
 10 15  2  0
 10 11  1  0
 11 12  2  0
 11 44  1  0
 12 13  1  0
 12 45  1  0
 13 14  1  0
 13 15  1  0
 16 17  1  0
 16 38  1  0
 17 18  1  0
 17 46  1  0
 17 47  1  0
 18 48  1  0
 19 18  1  0
 19 20  1  0
 19 26  2  0
 20 21  1  0
 20 49  1  0
 21 25  1  0
 21 22  1  0
 21 50  1  0
 22 23  1  0
 22 51  1  0
 22 52  1  0
 23 24  2  0
 23 53  1  0
 24 25  1  0
 24 54  1  0
 25 55  1  0
 25 56  1  0
 26 27  1  0
 26 28  1  0
 28 29  1  6
 28 36  1  0
 28 30  1  0
 30 31  1  1
 30 36  1  0
 30 32  1  0
 32 33  1  0
 32 57  1  0
 32 58  1  0
 33 34  2  0
 33 59  1  0
 34 35  1  0
 34 60  1  0
 35 36  1  0
 35 61  1  0
 35 62  1  0
 36 37  1  1
M  CHG  1  26   1
M  END
>  <DOCK_score>  (1) 
-46.486279

>  <SMILES>  (1) 
Clc1ccc(-c2cccc3cc[nH]c23)c(CNC(NC2CC=CC2)=[NH+][C@H]2[C@@H]3CC=CC[C@@H]32)n1

$$$$
