Cc1n[nH]cc1C[NH2+]Cc1c[nH]nc1-c1ccc(Nc2ccc(O)cc2)o1
     RDKit          3D

 48 51  0  0  0  0  0  0  0  0999 V2000
  132.0777  137.4274  163.8325 C   0  0  0  0  0  0  0  0  0  0  0  0
  132.9732  137.1231  162.6594 C   0  0  0  0  0  0  0  0  0  0  0  0
  134.2344  136.7814  162.7253 N   0  0  0  0  0  0  0  0  0  0  0  0
  134.7041  136.5874  161.4199 N   0  0  0  0  0  0  0  0  0  0  0  0
  135.6050  136.3284  161.1702 H   0  0  0  0  0  0  0  0  0  0  0  0
  133.6806  136.8189  160.5715 C   0  0  0  0  0  0  0  0  0  0  0  0
  132.5997  137.1574  161.3119 C   0  0  0  0  0  0  0  0  0  0  0  0
  131.2333  137.5038  160.7791 C   0  0  0  0  0  0  0  0  0  0  0  0
  130.8543  136.5388  159.7385 N   0  0  0  0  0  0  0  0  0  0  0  0
  131.5268  136.5729  158.9872 H   0  0  0  0  0  0  0  0  0  0  0  0
  129.9394  136.7709  159.3818 H   0  0  0  0  0  0  0  0  0  0  0  0
  130.8279  135.1862  160.3112 C   0  0  0  0  0  0  0  0  0  0  0  0
  130.4391  134.1963  159.2435 C   0  0  0  0  0  0  0  0  0  0  0  0
  131.2852  133.5437  158.4180 C   0  0  0  0  0  0  0  0  0  0  0  0
  130.5508  132.7507  157.6079 N   0  0  0  0  0  0  0  0  0  0  0  0
  130.8984  132.1678  156.9149 H   0  0  0  0  0  0  0  0  0  0  0  0
  129.2005  132.9160  157.9411 N   0  0  0  0  0  0  0  0  0  0  0  0
  129.1262  133.7874  158.9278 C   0  0  0  0  0  0  0  0  0  0  0  0
  127.8877  134.2571  159.5825 C   0  0  0  0  0  0  0  0  0  0  0  0
  126.6251  133.8557  159.2786 C   0  0  0  0  0  0  0  0  0  0  0  0
  125.7566  134.5517  160.1419 C   0  0  0  0  0  0  0  0  0  0  0  0
  126.5296  135.3417  160.9285 C   0  0  0  0  0  0  0  0  0  0  0  0
  126.0690  136.1970  161.9229 N   0  0  0  0  0  0  0  0  0  0  0  0
  126.8690  136.4679  163.0384 C   0  0  0  0  0  0  0  0  0  0  0  0
  126.7725  137.6955  163.6811 C   0  0  0  0  0  0  0  0  0  0  0  0
  127.5588  137.9599  164.7851 C   0  0  0  0  0  0  0  0  0  0  0  0
  128.4522  137.0039  165.2459 C   0  0  0  0  0  0  0  0  0  0  0  0
  129.2297  137.2673  166.3301 O   0  0  0  0  0  0  0  0  0  0  0  0
  128.5533  135.7799  164.6013 C   0  0  0  0  0  0  0  0  0  0  0  0
  127.7642  135.5116  163.5003 C   0  0  0  0  0  0  0  0  0  0  0  0
  127.8165  135.1539  160.5884 O   0  0  0  0  0  0  0  0  0  0  0  0
  131.5907  136.5108  164.1654 H   0  0  0  0  0  0  0  0  0  0  0  0
  132.6736  137.8387  164.6474 H   0  0  0  0  0  0  0  0  0  0  0  0
  131.3211  138.1529  163.5335 H   0  0  0  0  0  0  0  0  0  0  0  0
  133.7181  136.7492  159.4944 H   0  0  0  0  0  0  0  0  0  0  0  0
  131.2528  138.5074  160.3543 H   0  0  0  0  0  0  0  0  0  0  0  0
  130.5067  137.4670  161.5909 H   0  0  0  0  0  0  0  0  0  0  0  0
  130.1013  135.1494  161.1228 H   0  0  0  0  0  0  0  0  0  0  0  0
  131.8161  134.9355  160.6964 H   0  0  0  0  0  0  0  0  0  0  0  0
  132.3608  133.6393  158.4071 H   0  0  0  0  0  0  0  0  0  0  0  0
  126.3420  133.1405  158.5204 H   0  0  0  0  0  0  0  0  0  0  0  0
  124.6800  134.4713  160.1723 H   0  0  0  0  0  0  0  0  0  0  0  0
  125.1931  136.6059  161.8432 H   0  0  0  0  0  0  0  0  0  0  0  0
  126.0803  138.4414  163.3198 H   0  0  0  0  0  0  0  0  0  0  0  0
  127.4810  138.9128  165.2874 H   0  0  0  0  0  0  0  0  0  0  0  0
  129.8201  136.5419  166.5762 H   0  0  0  0  0  0  0  0  0  0  0  0
  129.2491  135.0363  164.9608 H   0  0  0  0  0  0  0  0  0  0  0  0
  127.8433  134.5586  162.9983 H   0  0  0  0  0  0  0  0  0  0  0  0
  1  2  1  0
  1 32  1  0
  1 33  1  0
  1 34  1  0
  2  7  1  0
  2  3  2  0
  3  4  1  0
  4  5  1  0
  4  6  1  0
  6  7  2  0
  6 35  1  0
  7  8  1  0
  8  9  1  0
  8 36  1  0
  8 37  1  0
  9 10  1  0
  9 11  1  0
  9 12  1  0
 12 13  1  0
 12 38  1  0
 12 39  1  0
 13 18  1  0
 13 14  2  0
 14 15  1  0
 14 40  1  0
 15 16  1  0
 15 17  1  0
 17 18  2  0
 18 19  1  0
 19 31  1  0
 19 20  2  0
 20 21  1  0
 20 41  1  0
 21 22  2  0
 21 42  1  0
 22 23  1  0
 22 31  1  0
 23 24  1  0
 23 43  1  0
 24 30  1  0
 24 25  2  0
 25 26  1  0
 25 44  1  0
 26 27  2  0
 26 45  1  0
 27 28  1  0
 27 29  1  0
 28 46  1  0
 29 30  2  0
 29 47  1  0
 30 48  1  0
M  CHG  1   9   1
M  END
>  <DOCK_score>  (1) 
-44.225204

>  <SMILES>  (1) 
Cc1n[nH]cc1C[NH2+]Cc1c[nH]nc1-c1ccc(Nc2ccc(O)cc2)o1

$$$$
