COc1ccc(-c2c[nH]c(N[C@H](c3ccccc3)c3ccc(C)cc3)[nH+]2)cc1
     RDKit          3D

 52 55  0  0  1  0  0  0  0  0999 V2000
  130.5483  129.6433  150.1407 C   0  0  0  0  0  0  0  0  0  0  0  0
  131.2553  129.1658  151.2872 O   0  0  0  0  0  0  0  0  0  0  0  0
  131.0480  129.8239  152.4583 C   0  0  0  0  0  0  0  0  0  0  0  0
  131.7041  129.4118  153.6098 C   0  0  0  0  0  0  0  0  0  0  0  0
  131.4957  130.0774  154.7998 C   0  0  0  0  0  0  0  0  0  0  0  0
  130.6254  131.1652  154.8450 C   0  0  0  0  0  0  0  0  0  0  0  0
  130.3991  131.8834  156.1232 C   0  0  0  0  0  0  0  0  0  0  0  0
  129.8982  131.3458  157.2627 C   0  0  0  0  0  0  0  0  0  0  0  0
  129.8558  132.3553  158.1947 N   0  0  0  0  0  0  0  0  0  0  0  0
  129.5438  132.2794  159.1101 H   0  0  0  0  0  0  0  0  0  0  0  0
  130.3324  133.4804  157.5961 C   0  0  0  0  0  0  0  0  0  0  0  0
  130.4554  134.7223  158.1954 N   0  0  0  0  0  0  0  0  0  0  0  0
  130.0543  134.9043  159.5926 C   0  0  2  0  0  0  0  0  0  0  0  0
  130.3613  134.0356  160.1749 H   0  0  0  0  0  0  0  0  0  0  0  0
  128.5570  135.0571  159.6698 C   0  0  0  0  0  0  0  0  0  0  0  0
  127.8761  134.6335  160.7957 C   0  0  0  0  0  0  0  0  0  0  0  0
  126.5028  134.7740  160.8666 C   0  0  0  0  0  0  0  0  0  0  0  0
  125.8104  135.3387  159.8117 C   0  0  0  0  0  0  0  0  0  0  0  0
  126.4914  135.7628  158.6860 C   0  0  0  0  0  0  0  0  0  0  0  0
  127.8645  135.6205  158.6143 C   0  0  0  0  0  0  0  0  0  0  0  0
  130.7146  136.1400  160.1480 C   0  0  0  0  0  0  0  0  0  0  0  0
  130.0825  137.3653  160.0484 C   0  0  0  0  0  0  0  0  0  0  0  0
  130.6858  138.4980  160.5626 C   0  0  0  0  0  0  0  0  0  0  0  0
  131.9265  138.4067  161.1661 C   0  0  0  0  0  0  0  0  0  0  0  0
  132.5872  139.6422  161.7211 C   0  0  0  0  0  0  0  0  0  0  0  0
  132.5606  137.1824  161.2606 C   0  0  0  0  0  0  0  0  0  0  0  0
  131.9548  136.0489  160.7516 C   0  0  0  0  0  0  0  0  0  0  0  0
  130.6508  133.1959  156.3568 N   0  0  0  0  0  0  0  0  0  0  0  0
  131.0108  133.8232  155.7105 H   0  0  0  0  0  0  0  0  0  0  0  0
  129.9637  131.5730  153.6881 C   0  0  0  0  0  0  0  0  0  0  0  0
  130.1809  130.9070  152.4999 C   0  0  0  0  0  0  0  0  0  0  0  0
  130.8036  129.0314  149.2756 H   0  0  0  0  0  0  0  0  0  0  0  0
  129.4755  129.5833  150.3245 H   0  0  0  0  0  0  0  0  0  0  0  0
  130.8265  130.6794  149.9478 H   0  0  0  0  0  0  0  0  0  0  0  0
  132.3782  128.5687  153.5742 H   0  0  0  0  0  0  0  0  0  0  0  0
  132.0069  129.7565  155.6954 H   0  0  0  0  0  0  0  0  0  0  0  0
  129.5910  130.3209  157.4098 H   0  0  0  0  0  0  0  0  0  0  0  0
  130.8069  135.4719  157.6903 H   0  0  0  0  0  0  0  0  0  0  0  0
  128.4171  134.1930  161.6202 H   0  0  0  0  0  0  0  0  0  0  0  0
  125.9707  134.4431  161.7462 H   0  0  0  0  0  0  0  0  0  0  0  0
  124.7370  135.4444  159.8652 H   0  0  0  0  0  0  0  0  0  0  0  0
  125.9505  136.2036  157.8617 H   0  0  0  0  0  0  0  0  0  0  0  0
  128.3965  135.9512  157.7345 H   0  0  0  0  0  0  0  0  0  0  0  0
  129.1156  137.4371  159.5728 H   0  0  0  0  0  0  0  0  0  0  0  0
  130.1900  139.4546  160.4888 H   0  0  0  0  0  0  0  0  0  0  0  0
  133.1997  140.1054  160.9474 H   0  0  0  0  0  0  0  0  0  0  0  0
  131.8222  140.3472  162.0485 H   0  0  0  0  0  0  0  0  0  0  0  0
  133.2159  139.3692  162.5678 H   0  0  0  0  0  0  0  0  0  0  0  0
  133.5297  137.1114  161.7320 H   0  0  0  0  0  0  0  0  0  0  0  0
  132.4505  135.0923  160.8254 H   0  0  0  0  0  0  0  0  0  0  0  0
  129.2852  132.4128  153.7210 H   0  0  0  0  0  0  0  0  0  0  0  0
  129.6718  131.2254  151.6021 H   0  0  0  0  0  0  0  0  0  0  0  0
  1  2  1  0
  1 32  1  0
  1 33  1  0
  1 34  1  0
  2  3  1  0
  3 31  2  0
  3  4  1  0
  4  5  2  0
  4 35  1  0
  5  6  1  0
  5 36  1  0
  6  7  1  0
  6 30  2  0
  7 28  1  0
  7  8  2  0
  8  9  1  0
  8 37  1  0
  9 10  1  0
  9 11  1  0
 11 12  1  0
 11 28  2  0
 12 13  1  0
 12 38  1  0
 13 14  1  1
 13 15  1  0
 13 21  1  0
 15 20  1  0
 15 16  2  0
 16 17  1  0
 16 39  1  0
 17 18  2  0
 17 40  1  0
 18 19  1  0
 18 41  1  0
 19 20  2  0
 19 42  1  0
 20 43  1  0
 21 27  1  0
 21 22  2  0
 22 23  1  0
 22 44  1  0
 23 24  2  0
 23 45  1  0
 24 25  1  0
 24 26  1  0
 25 46  1  0
 25 47  1  0
 25 48  1  0
 26 27  2  0
 26 49  1  0
 27 50  1  0
 28 29  1  0
 30 31  1  0
 30 51  1  0
 31 52  1  0
M  CHG  1  28   1
M  END
>  <DOCK_score>  (1) 
-56.512192

>  <SMILES>  (1) 
COc1ccc(-c2c[nH]c(N[C@H](c3ccccc3)c3ccc(C)cc3)[nH+]2)cc1

$$$$
