Cn1nccc1[C@H](Nc1[nH]cc(-c2cccnc2)[nH+]1)c1ccccc1
     RDKit          3D

 44 47  0  0  1  0  0  0  0  0999 V2000
  128.1075  137.0336  162.4326 C   0  0  0  0  0  0  0  0  0  0  0  0
  128.9226  137.6564  161.3866 N   0  0  0  0  0  0  0  0  0  0  0  0
  129.4288  138.9624  161.4045 N   0  0  0  0  0  0  0  0  0  0  0  0
  130.1049  139.1539  160.3008 C   0  0  0  0  0  0  0  0  0  0  0  0
  130.0509  137.9776  159.5458 C   0  0  0  0  0  0  0  0  0  0  0  0
  129.3184  137.0732  160.2358 C   0  0  0  0  0  0  0  0  0  0  0  0
  128.9962  135.6685  159.7952 C   0  0  2  0  0  0  0  0  0  0  0  0
  128.8818  135.0300  160.6712 H   0  0  0  0  0  0  0  0  0  0  0  0
  130.0841  135.1579  158.9574 N   0  0  0  0  0  0  0  0  0  0  0  0
  130.0114  133.8790  158.4321 C   0  0  0  0  0  0  0  0  0  0  0  0
  129.3772  132.8208  159.0068 N   0  0  0  0  0  0  0  0  0  0  0  0
  128.8988  132.8270  159.8506 H   0  0  0  0  0  0  0  0  0  0  0  0
  129.5373  131.7432  158.1701 C   0  0  0  0  0  0  0  0  0  0  0  0
  130.2709  132.1714  157.1130 C   0  0  0  0  0  0  0  0  0  0  0  0
  130.6961  131.3481  155.9547 C   0  0  0  0  0  0  0  0  0  0  0  0
  130.2961  131.6856  154.6583 C   0  0  0  0  0  0  0  0  0  0  0  0
  130.7232  130.8879  153.6110 C   0  0  0  0  0  0  0  0  0  0  0  0
  131.5161  129.7866  153.8790 C   0  0  0  0  0  0  0  0  0  0  0  0
  131.8735  129.4903  155.1135 N   0  0  0  0  0  0  0  0  0  0  0  0
  131.4958  130.2225  156.1415 C   0  0  0  0  0  0  0  0  0  0  0  0
  130.5468  133.4862  157.3021 N   0  0  0  0  0  0  0  0  0  0  0  0
  131.0588  134.0461  156.6976 H   0  0  0  0  0  0  0  0  0  0  0  0
  127.7129  135.6717  159.0051 C   0  0  0  0  0  0  0  0  0  0  0  0
  126.5034  135.4938  159.6505 C   0  0  0  0  0  0  0  0  0  0  0  0
  125.3260  135.5006  158.9263 C   0  0  0  0  0  0  0  0  0  0  0  0
  125.3586  135.6774  157.5557 C   0  0  0  0  0  0  0  0  0  0  0  0
  126.5684  135.8502  156.9097 C   0  0  0  0  0  0  0  0  0  0  0  0
  127.7455  135.8472  157.6343 C   0  0  0  0  0  0  0  0  0  0  0  0
  128.7583  136.5422  163.1560 H   0  0  0  0  0  0  0  0  0  0  0  0
  127.5165  137.7985  162.9365 H   0  0  0  0  0  0  0  0  0  0  0  0
  127.4415  136.2968  161.9838 H   0  0  0  0  0  0  0  0  0  0  0  0
  130.6167  140.0628  160.0212 H   0  0  0  0  0  0  0  0  0  0  0  0
  130.5128  137.8191  158.5824 H   0  0  0  0  0  0  0  0  0  0  0  0
  130.8554  135.7157  158.7706 H   0  0  0  0  0  0  0  0  0  0  0  0
  129.1554  130.7451  158.3261 H   0  0  0  0  0  0  0  0  0  0  0  0
  129.6729  132.5490  154.4783 H   0  0  0  0  0  0  0  0  0  0  0  0
  130.4367  131.1202  152.5960 H   0  0  0  0  0  0  0  0  0  0  0  0
  131.8482  129.1599  153.0645 H   0  0  0  0  0  0  0  0  0  0  0  0
  131.8091  129.9479  157.1379 H   0  0  0  0  0  0  0  0  0  0  0  0
  126.4783  135.3523  160.7209 H   0  0  0  0  0  0  0  0  0  0  0  0
  124.3808  135.3653  159.4311 H   0  0  0  0  0  0  0  0  0  0  0  0
  124.4389  135.6802  156.9895 H   0  0  0  0  0  0  0  0  0  0  0  0
  126.5939  135.9879  155.8387 H   0  0  0  0  0  0  0  0  0  0  0  0
  128.6908  135.9821  157.1295 H   0  0  0  0  0  0  0  0  0  0  0  0
  1  2  1  0
  1 29  1  0
  1 30  1  0
  1 31  1  0
  2  6  1  0
  2  3  1  0
  3  4  2  0
  4  5  1  0
  4 32  1  0
  5  6  2  0
  5 33  1  0
  6  7  1  0
  7  8  1  1
  7  9  1  0
  7 23  1  0
  9 34  1  0
 10  9  1  0
 10 21  2  0
 10 11  1  0
 11 12  1  0
 11 13  1  0
 13 14  2  0
 13 35  1  0
 14 15  1  0
 14 21  1  0
 15 20  1  0
 15 16  2  0
 16 17  1  0
 16 36  1  0
 17 18  2  0
 17 37  1  0
 18 19  1  0
 18 38  1  0
 19 20  2  0
 20 39  1  0
 21 22  1  0
 23 28  1  0
 23 24  2  0
 24 25  1  0
 24 40  1  0
 25 26  2  0
 25 41  1  0
 26 27  1  0
 26 42  1  0
 27 28  2  0
 27 43  1  0
 28 44  1  0
M  CHG  1  21   1
M  END
>  <DOCK_score>  (1) 
-57.948235

>  <SMILES>  (1) 
Cn1nccc1[C@H](Nc1[nH]cc(-c2cccnc2)[nH+]1)c1ccccc1

$$$$
