Cc1c(C2C[C@H]2C)cccc1N1CC[NH+](C(c2ccccc2)c2ccccc2)CC1
     RDKit          3D

 63 67  0  0  1  0  0  0  0  0999 V2000
  133.7642  138.9041  163.1394 C   0  0  0  0  0  0  0  0  0  0  0  0
  134.1936  139.3956  161.7810 C   0  0  0  0  0  0  0  0  0  0  0  0
  135.0795  140.4502  161.6755 C   0  0  0  0  0  0  0  0  0  0  0  0
  135.6171  141.1090  162.9197 C   0  0  2  0  0  0  0  0  0  0  0  0
  137.1343  141.2692  163.0350 C   0  0  0  0  0  0  0  0  0  0  0  0
  136.4066  140.2354  163.8967 C   0  0  1  0  0  0  0  0  0  0  0  0
  136.5369  139.1842  163.6397 H   0  0  0  0  0  0  0  0  0  0  0  0
  136.2613  140.5366  165.3897 C   0  0  0  0  0  0  0  0  0  0  0  0
  135.4696  140.9055  160.4295 C   0  0  0  0  0  0  0  0  0  0  0  0
  134.9786  140.3037  159.2851 C   0  0  0  0  0  0  0  0  0  0  0  0
  134.0964  139.2460  159.3834 C   0  0  0  0  0  0  0  0  0  0  0  0
  133.7024  138.7860  160.6338 C   0  0  0  0  0  0  0  0  0  0  0  0
  132.8099  137.7166  160.7369 N   0  0  0  0  0  0  0  0  0  0  0  0
  131.5048  138.0619  160.1557 C   0  0  0  0  0  0  0  0  0  0  0  0
  130.5404  136.8884  160.3418 C   0  0  0  0  0  0  0  0  0  0  0  0
  131.0884  135.6949  159.6838 N   0  0  0  0  0  0  0  0  0  0  0  0
  131.2193  135.8831  158.7012 H   0  0  0  0  0  0  0  0  0  0  0  0
  130.1538  134.5734  159.8472 C   0  0  0  0  0  0  0  0  0  0  0  0
  130.7158  133.3489  159.1721 C   0  0  0  0  0  0  0  0  0  0  0  0
  130.4198  133.0935  157.8462 C   0  0  0  0  0  0  0  0  0  0  0  0
  130.9392  131.9727  157.2256 C   0  0  0  0  0  0  0  0  0  0  0  0
  131.7459  131.1019  157.9340 C   0  0  0  0  0  0  0  0  0  0  0  0
  132.0377  131.3546  159.2613 C   0  0  0  0  0  0  0  0  0  0  0  0
  131.5225  132.4781  159.8804 C   0  0  0  0  0  0  0  0  0  0  0  0
  128.8292  134.9283  159.2223 C   0  0  0  0  0  0  0  0  0  0  0  0
  127.6604  134.3902  159.7277 C   0  0  0  0  0  0  0  0  0  0  0  0
  126.4449  134.7195  159.1575 C   0  0  0  0  0  0  0  0  0  0  0  0
  126.3987  135.5784  158.0762 C   0  0  0  0  0  0  0  0  0  0  0  0
  127.5684  136.1124  157.5668 C   0  0  0  0  0  0  0  0  0  0  0  0
  128.7834  135.7872  158.1403 C   0  0  0  0  0  0  0  0  0  0  0  0
  132.3798  135.3484  160.2918 C   0  0  0  0  0  0  0  0  0  0  0  0
  133.3596  136.5089  160.1050 C   0  0  0  0  0  0  0  0  0  0  0  0
  134.4504  138.1279  163.4784 H   0  0  0  0  0  0  0  0  0  0  0  0
  133.7763  139.7337  163.8463 H   0  0  0  0  0  0  0  0  0  0  0  0
  132.7558  138.4954  163.0758 H   0  0  0  0  0  0  0  0  0  0  0  0
  134.9939  141.8980  163.3406 H   0  0  0  0  0  0  0  0  0  0  0  0
  137.7437  140.8983  162.2108 H   0  0  0  0  0  0  0  0  0  0  0  0
  137.5094  142.1640  163.5317 H   0  0  0  0  0  0  0  0  0  0  0  0
  135.2175  140.4254  165.6829 H   0  0  0  0  0  0  0  0  0  0  0  0
  136.8755  139.8413  165.9621 H   0  0  0  0  0  0  0  0  0  0  0  0
  136.5877  141.5576  165.5878 H   0  0  0  0  0  0  0  0  0  0  0  0
  136.1595  141.7325  160.3498 H   0  0  0  0  0  0  0  0  0  0  0  0
  135.2853  140.6617  158.3135 H   0  0  0  0  0  0  0  0  0  0  0  0
  133.7135  138.7765  158.4894 H   0  0  0  0  0  0  0  0  0  0  0  0
  131.6238  138.2697  159.0924 H   0  0  0  0  0  0  0  0  0  0  0  0
  131.1055  138.9437  160.6566 H   0  0  0  0  0  0  0  0  0  0  0  0
  129.5761  137.1370  159.8988 H   0  0  0  0  0  0  0  0  0  0  0  0
  130.4111  136.6896  161.4057 H   0  0  0  0  0  0  0  0  0  0  0  0
  130.0120  134.3704  160.9087 H   0  0  0  0  0  0  0  0  0  0  0  0
  129.7858  133.7714  157.2941 H   0  0  0  0  0  0  0  0  0  0  0  0
  130.7109  131.7751  156.1886 H   0  0  0  0  0  0  0  0  0  0  0  0
  132.1481  130.2240  157.4502 H   0  0  0  0  0  0  0  0  0  0  0  0
  132.6676  130.6740  159.8148 H   0  0  0  0  0  0  0  0  0  0  0  0
  131.7501  132.6752  160.9175 H   0  0  0  0  0  0  0  0  0  0  0  0
  127.6966  133.7156  160.5703 H   0  0  0  0  0  0  0  0  0  0  0  0
  125.5314  134.3020  159.5546 H   0  0  0  0  0  0  0  0  0  0  0  0
  125.4499  135.8323  157.6272 H   0  0  0  0  0  0  0  0  0  0  0  0
  127.5326  136.7832  156.7212 H   0  0  0  0  0  0  0  0  0  0  0  0
  129.6970  136.2040  157.7426 H   0  0  0  0  0  0  0  0  0  0  0  0
  132.2409  135.1576  161.3560 H   0  0  0  0  0  0  0  0  0  0  0  0
  132.7793  134.4550  159.8117 H   0  0  0  0  0  0  0  0  0  0  0  0
  133.5091  136.6911  159.0408 H   0  0  0  0  0  0  0  0  0  0  0  0
  134.3135  136.2578  160.5689 H   0  0  0  0  0  0  0  0  0  0  0  0
  1  2  1  0
  1 33  1  0
  1 34  1  0
  1 35  1  0
  2 12  2  0
  2  3  1  0
  3  4  1  0
  3  9  2  0
  4  6  1  0
  4  5  1  0
  4 36  1  1
  5  6  1  0
  5 37  1  0
  5 38  1  0
  6  7  1  1
  6  8  1  0
  8 39  1  0
  8 40  1  0
  8 41  1  0
  9 10  1  0
  9 42  1  0
 10 11  2  0
 10 43  1  0
 11 12  1  0
 11 44  1  0
 12 13  1  0
 13 32  1  0
 13 14  1  0
 14 15  1  0
 14 45  1  0
 14 46  1  0
 15 16  1  0
 15 47  1  0
 15 48  1  0
 16 17  1  0
 16 18  1  0
 16 31  1  0
 18 19  1  0
 18 25  1  0
 18 49  1  0
 19 24  1  0
 19 20  2  0
 20 21  1  0
 20 50  1  0
 21 22  2  0
 21 51  1  0
 22 23  1  0
 22 52  1  0
 23 24  2  0
 23 53  1  0
 24 54  1  0
 25 30  1  0
 25 26  2  0
 26 27  1  0
 26 55  1  0
 27 28  2  0
 27 56  1  0
 28 29  1  0
 28 57  1  0
 29 30  2  0
 29 58  1  0
 30 59  1  0
 31 32  1  0
 31 60  1  0
 31 61  1  0
 32 62  1  0
 32 63  1  0
M  CHG  1  16   1
M  END
>  <DOCK_score>  (1) 
-56.077896

>  <SMILES>  (1) 
Cc1c(C2C[C@H]2C)cccc1N1CC[NH+](C(c2ccccc2)c2ccccc2)CC1

$$$$
