O[C@H]1C[C@@H](Nc2ccc(-c3n[nH]cc3C[NH2+]CC3CC4C[C@@H]4C3)o2)C1
     RDKit          3D

 52 56  0  0  1  0  0  0  0  0999 V2000
  126.9348  138.7036  165.6726 O   0  0  0  0  0  0  0  0  0  0  0  0
  127.4304  138.5638  164.3397 C   0  0  1  0  0  0  0  0  0  0  0  0
  128.2153  139.2820  164.1024 H   0  0  0  0  0  0  0  0  0  0  0  0
  127.7872  137.1152  163.9597 C   0  0  0  0  0  0  0  0  0  0  0  0
  127.1726  137.4103  162.5813 C   0  0  1  0  0  0  0  0  0  0  0  0
  127.8860  137.8130  161.8623 H   0  0  0  0  0  0  0  0  0  0  0  0
  126.3848  136.3000  162.0401 N   0  0  0  0  0  0  0  0  0  0  0  0
  126.9966  135.3339  161.2498 C   0  0  0  0  0  0  0  0  0  0  0  0
  126.3820  134.2616  160.6911 C   0  0  0  0  0  0  0  0  0  0  0  0
  127.3662  133.5491  159.9780 C   0  0  0  0  0  0  0  0  0  0  0  0
  128.5348  134.2245  160.1380 C   0  0  0  0  0  0  0  0  0  0  0  0
  129.8411  133.8420  159.5636 C   0  0  0  0  0  0  0  0  0  0  0  0
  130.0771  132.7913  158.8029 N   0  0  0  0  0  0  0  0  0  0  0  0
  131.4379  132.7915  158.4713 N   0  0  0  0  0  0  0  0  0  0  0  0
  131.8892  132.1330  157.9203 H   0  0  0  0  0  0  0  0  0  0  0  0
  132.0131  133.8672  159.0511 C   0  0  0  0  0  0  0  0  0  0  0  0
  131.0565  134.5395  159.7267 C   0  0  0  0  0  0  0  0  0  0  0  0
  131.2533  135.8071  160.5177 C   0  0  0  0  0  0  0  0  0  0  0  0
  131.0391  136.9680  159.6434 N   0  0  0  0  0  0  0  0  0  0  0  0
  131.6996  136.9414  158.8811 H   0  0  0  0  0  0  0  0  0  0  0  0
  130.0998  136.9434  159.2757 H   0  0  0  0  0  0  0  0  0  0  0  0
  131.2309  138.2036  160.4146 C   0  0  0  0  0  0  0  0  0  0  0  0
  132.6552  138.2409  160.9722 C   0  0  2  0  0  0  0  0  0  0  0  0
  132.9442  139.6041  161.6486 C   0  0  0  0  0  0  0  0  0  0  0  0
  134.4805  139.7341  161.5962 C   0  0  2  0  0  0  0  0  0  0  0  0
  135.1109  140.3622  160.3515 C   0  0  0  0  0  0  0  0  0  0  0  0
  134.9579  138.8422  160.4367 C   0  0  2  0  0  0  0  0  0  0  0  0
  135.8493  138.2198  160.5138 H   0  0  0  0  0  0  0  0  0  0  0  0
  133.6950  138.2014  159.8249 C   0  0  0  0  0  0  0  0  0  0  0  0
  128.2969  135.3048  160.9113 O   0  0  0  0  0  0  0  0  0  0  0  0
  126.3228  138.4878  163.2755 C   0  0  0  0  0  0  0  0  0  0  0  0
  127.6266  138.7520  166.3464 H   0  0  0  0  0  0  0  0  0  0  0  0
  127.2388  136.3662  164.5310 H   0  0  0  0  0  0  0  0  0  0  0  0
  128.8596  136.9229  163.9275 H   0  0  0  0  0  0  0  0  0  0  0  0
  125.4362  136.2391  162.2333 H   0  0  0  0  0  0  0  0  0  0  0  0
  125.3370  134.0030  160.7770 H   0  0  0  0  0  0  0  0  0  0  0  0
  127.2201  132.6407  159.4124 H   0  0  0  0  0  0  0  0  0  0  0  0
  133.0547  134.1438  158.9824 H   0  0  0  0  0  0  0  0  0  0  0  0
  130.5399  135.8358  161.3413 H   0  0  0  0  0  0  0  0  0  0  0  0
  132.2681  135.8336  160.9149 H   0  0  0  0  0  0  0  0  0  0  0  0
  131.0721  139.0651  159.7659 H   0  0  0  0  0  0  0  0  0  0  0  0
  130.5174  138.2323  161.2380 H   0  0  0  0  0  0  0  0  0  0  0  0
  132.8172  137.4186  161.6690 H   0  0  0  0  0  0  0  0  0  0  0  0
  132.4736  140.4139  161.0912 H   0  0  0  0  0  0  0  0  0  0  0  0
  132.5968  139.5985  162.6818 H   0  0  0  0  0  0  0  0  0  0  0  0
  135.0195  139.7698  162.5430 H   0  0  0  0  0  0  0  0  0  0  0  0
  136.1158  140.7724  160.4497 H   0  0  0  0  0  0  0  0  0  0  0  0
  134.4500  140.8964  159.6690 H   0  0  0  0  0  0  0  0  0  0  0  0
  133.8955  137.1722  159.5272 H   0  0  0  0  0  0  0  0  0  0  0  0
  133.3445  138.7827  158.9722 H   0  0  0  0  0  0  0  0  0  0  0  0
  126.2148  139.4018  162.6917 H   0  0  0  0  0  0  0  0  0  0  0  0
  125.3734  138.1147  163.6594 H   0  0  0  0  0  0  0  0  0  0  0  0
  1  2  1  0
  1 32  1  0
  2  3  1  6
  2 31  1  0
  2  4  1  0
  4  5  1  0
  4 33  1  0
  4 34  1  0
  5  6  1  6
  5  7  1  0
  5 31  1  0
  7  8  1  0
  7 35  1  0
  8 30  1  0
  8  9  2  0
  9 10  1  0
  9 36  1  0
 10 11  2  0
 10 37  1  0
 11 12  1  0
 11 30  1  0
 12 17  1  0
 12 13  2  0
 13 14  1  0
 14 15  1  0
 14 16  1  0
 16 17  2  0
 16 38  1  0
 17 18  1  0
 18 19  1  0
 18 39  1  0
 18 40  1  0
 19 20  1  0
 19 21  1  0
 19 22  1  0
 22 23  1  0
 22 41  1  0
 22 42  1  0
 23 29  1  0
 23 24  1  0
 23 43  1  1
 24 25  1  0
 24 44  1  0
 24 45  1  0
 25 27  1  0
 25 26  1  0
 25 46  1  1
 26 27  1  0
 26 47  1  0
 26 48  1  0
 27 28  1  1
 27 29  1  0
 29 49  1  0
 29 50  1  0
 31 51  1  0
 31 52  1  0
M  CHG  1  19   1
M  END
>  <DOCK_score>  (1) 
-41.609329

>  <SMILES>  (1) 
O[C@H]1C[C@@H](Nc2ccc(-c3n[nH]cc3C[NH2+]CC3CC4C[C@@H]4C3)o2)C1

$$$$
