Nc1cc(F)c(F)cc1NC(=O)[C@@H]([NH3+])Cc1ccc(Oc2nccnc2-c2ccccc2)cc1
     RDKit          3D

 56 59  0  0  1  0  0  0  0  0999 V2000
  133.1416  138.2962  159.9464 N   0  0  0  0  0  0  0  0  0  0  0  0
  134.2610  139.0312  160.3559 C   0  0  0  0  0  0  0  0  0  0  0  0
  135.2188  139.4130  159.4283 C   0  0  0  0  0  0  0  0  0  0  0  0
  136.3216  140.1442  159.8335 C   0  0  0  0  0  0  0  0  0  0  0  0
  137.2537  140.5159  158.9288 F   0  0  0  0  0  0  0  0  0  0  0  0
  136.4716  140.4965  161.1662 C   0  0  0  0  0  0  0  0  0  0  0  0
  137.5496  141.2107  161.5575 F   0  0  0  0  0  0  0  0  0  0  0  0
  135.5192  140.1183  162.0959 C   0  0  0  0  0  0  0  0  0  0  0  0
  134.4119  139.3854  161.6957 C   0  0  0  0  0  0  0  0  0  0  0  0
  133.4456  139.0018  162.6370 N   0  0  0  0  0  0  0  0  0  0  0  0
  133.2186  139.7699  163.7210 C   0  0  0  0  0  0  0  0  0  0  0  0
  133.8501  140.7929  163.8824 O   0  0  0  0  0  0  0  0  0  0  0  0
  132.1803  139.3577  164.7324 C   0  0  1  0  0  0  0  0  0  0  0  0
  132.1065  138.2704  164.7549 H   0  0  0  0  0  0  0  0  0  0  0  0
  132.5686  139.8497  166.0611 N   0  0  0  0  0  0  0  0  0  0  0  0
  132.6369  140.8562  166.0402 H   0  0  0  0  0  0  0  0  0  0  0  0
  131.8734  139.5738  166.7383 H   0  0  0  0  0  0  0  0  0  0  0  0
  133.4621  139.4572  166.3172 H   0  0  0  0  0  0  0  0  0  0  0  0
  130.8255  139.9530  164.3441 C   0  0  0  0  0  0  0  0  0  0  0  0
  130.1990  139.1124  163.2615 C   0  0  0  0  0  0  0  0  0  0  0  0
  129.3770  138.0531  163.5990 C   0  0  0  0  0  0  0  0  0  0  0  0
  128.7970  137.2844  162.6086 C   0  0  0  0  0  0  0  0  0  0  0  0
  129.0492  137.5691  161.2741 C   0  0  0  0  0  0  0  0  0  0  0  0
  128.4844  136.8111  160.2979 O   0  0  0  0  0  0  0  0  0  0  0  0
  127.6802  135.7859  160.6731 C   0  0  0  0  0  0  0  0  0  0  0  0
  126.3811  135.9850  160.8359 N   0  0  0  0  0  0  0  0  0  0  0  0
  125.5979  134.9821  161.1967 C   0  0  0  0  0  0  0  0  0  0  0  0
  126.1309  133.7248  161.4169 C   0  0  0  0  0  0  0  0  0  0  0  0
  127.4258  133.5141  161.2634 N   0  0  0  0  0  0  0  0  0  0  0  0
  128.2214  134.5123  160.8961 C   0  0  0  0  0  0  0  0  0  0  0  0
  129.6753  134.2802  160.7221 C   0  0  0  0  0  0  0  0  0  0  0  0
  130.4471  133.8405  161.7964 C   0  0  0  0  0  0  0  0  0  0  0  0
  131.7990  133.6209  161.6271 C   0  0  0  0  0  0  0  0  0  0  0  0
  132.3904  133.8470  160.3971 C   0  0  0  0  0  0  0  0  0  0  0  0
  131.6305  134.2884  159.3288 C   0  0  0  0  0  0  0  0  0  0  0  0
  130.2767  134.5063  159.4850 C   0  0  0  0  0  0  0  0  0  0  0  0
  129.8792  138.6291  160.9383 C   0  0  0  0  0  0  0  0  0  0  0  0
  130.4517  139.3985  161.9326 C   0  0  0  0  0  0  0  0  0  0  0  0
  133.0354  138.0537  159.0132 H   0  0  0  0  0  0  0  0  0  0  0  0
  132.4723  138.0297  160.5959 H   0  0  0  0  0  0  0  0  0  0  0  0
  135.1038  139.1400  158.3896 H   0  0  0  0  0  0  0  0  0  0  0  0
  135.6382  140.3938  163.1335 H   0  0  0  0  0  0  0  0  0  0  0  0
  132.9407  138.1838  162.5079 H   0  0  0  0  0  0  0  0  0  0  0  0
  130.1718  139.9682  165.2163 H   0  0  0  0  0  0  0  0  0  0  0  0
  130.9669  140.9700  163.9784 H   0  0  0  0  0  0  0  0  0  0  0  0
  129.1850  137.8288  164.6379 H   0  0  0  0  0  0  0  0  0  0  0  0
  128.1515  136.4598  162.8727 H   0  0  0  0  0  0  0  0  0  0  0  0
  124.5383  135.1467  161.3245 H   0  0  0  0  0  0  0  0  0  0  0  0
  125.4855  132.9119  161.7154 H   0  0  0  0  0  0  0  0  0  0  0  0
  129.9873  133.6680  162.7583 H   0  0  0  0  0  0  0  0  0  0  0  0
  132.3973  133.2760  162.4575 H   0  0  0  0  0  0  0  0  0  0  0  0
  133.4496  133.6779  160.2703 H   0  0  0  0  0  0  0  0  0  0  0  0
  132.0975  134.4631  158.3709 H   0  0  0  0  0  0  0  0  0  0  0  0
  129.6845  134.8508  158.6503 H   0  0  0  0  0  0  0  0  0  0  0  0
  130.0768  138.8531  159.9004 H   0  0  0  0  0  0  0  0  0  0  0  0
  131.0976  140.2237  161.6717 H   0  0  0  0  0  0  0  0  0  0  0  0
  1  2  1  0
  1 39  1  0
  1 40  1  0
  2  9  2  0
  2  3  1  0
  3  4  2  0
  3 41  1  0
  4  5  1  0
  4  6  1  0
  6  7  1  0
  6  8  2  0
  8  9  1  0
  8 42  1  0
  9 10  1  0
 10 11  1  0
 10 43  1  0
 11 12  2  0
 11 13  1  0
 13 14  1  1
 13 15  1  0
 13 19  1  0
 15 16  1  0
 15 17  1  0
 15 18  1  0
 19 20  1  0
 19 44  1  0
 19 45  1  0
 20 38  1  0
 20 21  2  0
 21 22  1  0
 21 46  1  0
 22 23  2  0
 22 47  1  0
 23 24  1  0
 23 37  1  0
 24 25  1  0
 25 30  1  0
 25 26  2  0
 26 27  1  0
 27 28  2  0
 27 48  1  0
 28 29  1  0
 28 49  1  0
 29 30  2  0
 30 31  1  0
 31 36  1  0
 31 32  2  0
 32 33  1  0
 32 50  1  0
 33 34  2  0
 33 51  1  0
 34 35  1  0
 34 52  1  0
 35 36  2  0
 35 53  1  0
 36 54  1  0
 37 38  2  0
 37 55  1  0
 38 56  1  0
M  CHG  1  15   1
M  END
>  <DOCK_score>  (1) 
-42.181366

>  <SMILES>  (1) 
Nc1cc(F)c(F)cc1NC(=O)[C@@H]([NH3+])Cc1ccc(Oc2nccnc2-c2ccccc2)cc1

$$$$
