CCc1ccc(C=CCC[C@@H](Cc2ccccc2)Nc2[nH]cc(-c3ccc(N)cc3)[nH+]2)cc1
     RDKit          3D

 66 69  0  0  1  0  0  0  0  0999 V2000
  139.1545  136.9411  165.2449 C   0  0  0  0  0  0  0  0  0  0  0  0
  138.3362  135.8028  165.8575 C   0  0  0  0  0  0  0  0  0  0  0  0
  137.2077  135.4384  164.9277 C   0  0  0  0  0  0  0  0  0  0  0  0
  137.3995  134.4702  163.9582 C   0  0  0  0  0  0  0  0  0  0  0  0
  136.3705  134.1323  163.1034 C   0  0  0  0  0  0  0  0  0  0  0  0
  135.1342  134.7690  163.2188 C   0  0  0  0  0  0  0  0  0  0  0  0
  134.0275  134.4120  162.3064 C   0  0  0  0  0  0  0  0  0  0  0  0
  132.7761  134.6959  162.6394 C   0  0  0  0  0  0  0  0  0  0  0  0
  131.6476  134.3319  161.7092 C   0  0  0  0  0  0  0  0  0  0  0  0
  130.8947  135.5994  161.3004 C   0  0  0  0  0  0  0  0  0  0  0  0
  129.7491  135.2298  160.3560 C   0  0  1  0  0  0  0  0  0  0  0  0
  129.2760  134.3104  160.7012 H   0  0  0  0  0  0  0  0  0  0  0  0
  128.7169  136.3593  160.3398 C   0  0  0  0  0  0  0  0  0  0  0  0
  127.5885  135.9952  159.4098 C   0  0  0  0  0  0  0  0  0  0  0  0
  127.6500  136.3516  158.0756 C   0  0  0  0  0  0  0  0  0  0  0  0
  126.6170  136.0133  157.2215 C   0  0  0  0  0  0  0  0  0  0  0  0
  125.5176  135.3279  157.7038 C   0  0  0  0  0  0  0  0  0  0  0  0
  125.4539  134.9760  159.0391 C   0  0  0  0  0  0  0  0  0  0  0  0
  126.4891  135.3097  159.8920 C   0  0  0  0  0  0  0  0  0  0  0  0
  130.2759  135.0303  159.0037 N   0  0  0  0  0  0  0  0  0  0  0  0
  130.1255  133.8056  158.3761 C   0  0  0  0  0  0  0  0  0  0  0  0
  129.5115  132.7132  158.9064 N   0  0  0  0  0  0  0  0  0  0  0  0
  129.1037  132.6529  159.7845 H   0  0  0  0  0  0  0  0  0  0  0  0
  129.5762  131.7106  157.9679 C   0  0  0  0  0  0  0  0  0  0  0  0
  130.2222  132.2215  156.8907 C   0  0  0  0  0  0  0  0  0  0  0  0
  130.5193  131.5011  155.6284 C   0  0  0  0  0  0  0  0  0  0  0  0
  130.0090  131.9716  154.4195 C   0  0  0  0  0  0  0  0  0  0  0  0
  130.2912  131.3038  153.2465 C   0  0  0  0  0  0  0  0  0  0  0  0
  131.0741  130.1558  153.2704 C   0  0  0  0  0  0  0  0  0  0  0  0
  131.3533  129.4769  152.0819 N   0  0  0  0  0  0  0  0  0  0  0  0
  131.5793  129.6815  154.4753 C   0  0  0  0  0  0  0  0  0  0  0  0
  131.3044  130.3494  155.6499 C   0  0  0  0  0  0  0  0  0  0  0  0
  130.5519  133.5067  157.1730 N   0  0  0  0  0  0  0  0  0  0  0  0
  131.0241  134.1098  156.5779 H   0  0  0  0  0  0  0  0  0  0  0  0
  134.9489  135.7484  164.1954 C   0  0  0  0  0  0  0  0  0  0  0  0
  135.9845  136.0736  165.0470 C   0  0  0  0  0  0  0  0  0  0  0  0
  138.5131  137.8094  165.0944 H   0  0  0  0  0  0  0  0  0  0  0  0
  139.9707  137.2047  165.9176 H   0  0  0  0  0  0  0  0  0  0  0  0
  139.5626  136.6203  164.2865 H   0  0  0  0  0  0  0  0  0  0  0  0
  137.9281  136.1235  166.8160 H   0  0  0  0  0  0  0  0  0  0  0  0
  138.9778  134.9344  166.0082 H   0  0  0  0  0  0  0  0  0  0  0  0
  138.3568  133.9783  163.8700 H   0  0  0  0  0  0  0  0  0  0  0  0
  136.5215  133.3770  162.3465 H   0  0  0  0  0  0  0  0  0  0  0  0
  134.2381  133.9197  161.3686 H   0  0  0  0  0  0  0  0  0  0  0  0
  132.5652  135.1882  163.5774 H   0  0  0  0  0  0  0  0  0  0  0  0
  130.9641  133.6509  162.2164 H   0  0  0  0  0  0  0  0  0  0  0  0
  132.0514  133.8465  160.8207 H   0  0  0  0  0  0  0  0  0  0  0  0
  131.5781  136.2804  160.7933 H   0  0  0  0  0  0  0  0  0  0  0  0
  130.4910  136.0848  162.1889 H   0  0  0  0  0  0  0  0  0  0  0  0
  128.3250  136.5079  161.3459 H   0  0  0  0  0  0  0  0  0  0  0  0
  129.1900  137.2787  159.9946 H   0  0  0  0  0  0  0  0  0  0  0  0
  128.5067  136.8910  157.6997 H   0  0  0  0  0  0  0  0  0  0  0  0
  126.6667  136.2885  156.1783 H   0  0  0  0  0  0  0  0  0  0  0  0
  124.7086  135.0675  157.0375 H   0  0  0  0  0  0  0  0  0  0  0  0
  124.5949  134.4407  159.4160 H   0  0  0  0  0  0  0  0  0  0  0  0
  126.4390  135.0351  160.9354 H   0  0  0  0  0  0  0  0  0  0  0  0
  130.7302  135.7561  158.5482 H   0  0  0  0  0  0  0  0  0  0  0  0
  129.1834  130.7095  158.0676 H   0  0  0  0  0  0  0  0  0  0  0  0
  129.3964  132.8610  154.4010 H   0  0  0  0  0  0  0  0  0  0  0  0
  129.8998  131.6705  152.3091 H   0  0  0  0  0  0  0  0  0  0  0  0
  131.8997  128.6756  152.0977 H   0  0  0  0  0  0  0  0  0  0  0  0
  131.0009  129.8071  151.2406 H   0  0  0  0  0  0  0  0  0  0  0  0
  132.1875  128.7892  154.4917 H   0  0  0  0  0  0  0  0  0  0  0  0
  131.6974  129.9808  156.5859 H   0  0  0  0  0  0  0  0  0  0  0  0
  133.9958  136.2479  164.2868 H   0  0  0  0  0  0  0  0  0  0  0  0
  135.8413  136.8288  165.8058 H   0  0  0  0  0  0  0  0  0  0  0  0
  1  2  1  0
  1 37  1  0
  1 38  1  0
  1 39  1  0
  2  3  1  0
  2 40  1  0
  2 41  1  0
  3 36  2  0
  3  4  1  0
  4  5  2  0
  4 42  1  0
  5  6  1  0
  5 43  1  0
  6  7  1  0
  6 35  2  0
  7  8  2  0
  7 44  1  0
  8  9  1  0
  8 45  1  0
  9 10  1  0
  9 46  1  0
  9 47  1  0
 10 11  1  0
 10 48  1  0
 10 49  1  0
 11 12  1  1
 11 13  1  0
 11 20  1  0
 13 14  1  0
 13 50  1  0
 13 51  1  0
 14 19  1  0
 14 15  2  0
 15 16  1  0
 15 52  1  0
 16 17  2  0
 16 53  1  0
 17 18  1  0
 17 54  1  0
 18 19  2  0
 18 55  1  0
 19 56  1  0
 20 57  1  0
 21 20  1  0
 21 33  2  0
 21 22  1  0
 22 23  1  0
 22 24  1  0
 24 25  2  0
 24 58  1  0
 25 26  1  0
 25 33  1  0
 26 32  1  0
 26 27  2  0
 27 28  1  0
 27 59  1  0
 28 29  2  0
 28 60  1  0
 29 30  1  0
 29 31  1  0
 30 61  1  0
 30 62  1  0
 31 32  2  0
 31 63  1  0
 32 64  1  0
 33 34  1  0
 35 36  1  0
 35 65  1  0
 36 66  1  0
M  CHG  1  33   1
M  END
>  <DOCK_score>  (1) 
-69.439262

>  <SMILES>  (1) 
CCc1ccc(C=CCC[C@@H](Cc2ccccc2)Nc2[nH]cc(-c3ccc(N)cc3)[nH+]2)cc1

$$$$
