C[NH2+]Cc1ccc(C(O)c2ccc(Nc3ccc(N[C@H](C)C(C)O)cc3F)o2)o1
     RDKit          3D

 56 58  0  0  1  0  0  0  0  0999 V2000
  132.9066  136.2508  160.9004 C   0  0  0  0  0  0  0  0  0  0  0  0
  131.8547  135.5270  160.1741 N   0  0  0  0  0  0  0  0  0  0  0  0
  131.7507  135.9214  159.2511 H   0  0  0  0  0  0  0  0  0  0  0  0
  130.9827  135.6090  160.6750 H   0  0  0  0  0  0  0  0  0  0  0  0
  132.2235  134.1096  160.0621 C   0  0  0  0  0  0  0  0  0  0  0  0
  131.1444  133.3669  159.3170 C   0  0  0  0  0  0  0  0  0  0  0  0
  131.0894  133.1866  157.9852 C   0  0  0  0  0  0  0  0  0  0  0  0
  129.9177  132.4409  157.7208 C   0  0  0  0  0  0  0  0  0  0  0  0
  129.3241  132.2144  158.9066 C   0  0  0  0  0  0  0  0  0  0  0  0
  128.0375  131.4589  159.1178 C   0  0  2  0  0  0  0  0  0  0  0  0
  127.5345  131.0128  157.8570 O   0  0  0  0  0  0  0  0  0  0  0  0
  127.0247  132.3640  159.7707 C   0  0  0  0  0  0  0  0  0  0  0  0
  125.7680  132.0230  160.1059 C   0  0  0  0  0  0  0  0  0  0  0  0
  125.1737  133.1647  160.6910 C   0  0  0  0  0  0  0  0  0  0  0  0
  126.1070  134.1453  160.6700 C   0  0  0  0  0  0  0  0  0  0  0  0
  125.9381  135.4426  161.1462 N   0  0  0  0  0  0  0  0  0  0  0  0
  126.9919  136.3625  161.0626 C   0  0  0  0  0  0  0  0  0  0  0  0
  127.9141  136.2697  160.0290 C   0  0  0  0  0  0  0  0  0  0  0  0
  128.9531  137.1760  159.9466 C   0  0  0  0  0  0  0  0  0  0  0  0
  129.0758  138.1812  160.8968 C   0  0  0  0  0  0  0  0  0  0  0  0
  130.1291  139.0989  160.8124 N   0  0  0  0  0  0  0  0  0  0  0  0
  130.2589  140.1594  161.8150 C   0  0  2  0  0  0  0  0  0  0  0  0
  130.0230  139.7583  162.8006 H   0  0  0  0  0  0  0  0  0  0  0  0
  129.2913  141.2969  161.4822 C   0  0  0  0  0  0  0  0  0  0  0  0
  131.6930  140.6922  161.8110 C   0  0  1  0  0  0  0  0  0  0  0  0
  131.9751  141.4077  163.1336 C   0  0  0  0  0  0  0  0  0  0  0  0
  132.6053  139.6034  161.6546 O   0  0  0  0  0  0  0  0  0  0  0  0
  128.1543  138.2754  161.9315 C   0  0  0  0  0  0  0  0  0  0  0  0
  127.1107  137.3721  162.0115 C   0  0  0  0  0  0  0  0  0  0  0  0
  126.2102  137.4668  163.0142 F   0  0  0  0  0  0  0  0  0  0  0  0
  127.2248  133.6511  160.1109 O   0  0  0  0  0  0  0  0  0  0  0  0
  130.0742  132.7734  159.8702 O   0  0  0  0  0  0  0  0  0  0  0  0
  133.0189  135.8247  161.8973 H   0  0  0  0  0  0  0  0  0  0  0  0
  133.8486  136.1622  160.3591 H   0  0  0  0  0  0  0  0  0  0  0  0
  132.6329  137.3026  160.9836 H   0  0  0  0  0  0  0  0  0  0  0  0
  132.3359  133.6834  161.0591 H   0  0  0  0  0  0  0  0  0  0  0  0
  133.1656  134.0208  159.5208 H   0  0  0  0  0  0  0  0  0  0  0  0
  131.8031  133.5437  157.2574 H   0  0  0  0  0  0  0  0  0  0  0  0
  129.5645  132.1189  156.7524 H   0  0  0  0  0  0  0  0  0  0  0  0
  128.2229  130.5979  159.7602 H   0  0  0  0  0  0  0  0  0  0  0  0
  128.1353  130.4247  157.3794 H   0  0  0  0  0  0  0  0  0  0  0  0
  125.3021  131.0600  159.9584 H   0  0  0  0  0  0  0  0  0  0  0  0
  124.1676  133.2412  161.0763 H   0  0  0  0  0  0  0  0  0  0  0  0
  125.0909  135.7097  161.5360 H   0  0  0  0  0  0  0  0  0  0  0  0
  127.8193  135.4884  159.2895 H   0  0  0  0  0  0  0  0  0  0  0  0
  129.6701  137.1032  159.1423 H   0  0  0  0  0  0  0  0  0  0  0  0
  130.7731  139.0330  160.0903 H   0  0  0  0  0  0  0  0  0  0  0  0
  128.2695  140.9172  161.4851 H   0  0  0  0  0  0  0  0  0  0  0  0
  129.3878  142.0858  162.2281 H   0  0  0  0  0  0  0  0  0  0  0  0
  129.5271  141.6979  160.4965 H   0  0  0  0  0  0  0  0  0  0  0  0
  131.8183  141.3924  160.9851 H   0  0  0  0  0  0  0  0  0  0  0  0
  131.8498  140.7075  163.9595 H   0  0  0  0  0  0  0  0  0  0  0  0
  132.9968  141.7873  163.1308 H   0  0  0  0  0  0  0  0  0  0  0  0
  131.2791  142.2383  163.2530 H   0  0  0  0  0  0  0  0  0  0  0  0
  132.5495  138.9397  162.3557 H   0  0  0  0  0  0  0  0  0  0  0  0
  128.2504  139.0568  162.6710 H   0  0  0  0  0  0  0  0  0  0  0  0
  1  2  1  0
  1 33  1  0
  1 34  1  0
  1 35  1  0
  2  3  1  0
  2  4  1  0
  2  5  1  0
  5  6  1  0
  5 36  1  0
  5 37  1  0
  6 32  1  0
  6  7  2  0
  7  8  1  0
  7 38  1  0
  8  9  2  0
  8 39  1  0
  9 10  1  0
  9 32  1  0
 10 11  1  0
 10 12  1  0
 10 40  1  1
 11 41  1  0
 12 31  1  0
 12 13  2  0
 13 14  1  0
 13 42  1  0
 14 15  2  0
 14 43  1  0
 15 16  1  0
 15 31  1  0
 16 17  1  0
 16 44  1  0
 17 29  1  0
 17 18  2  0
 18 19  1  0
 18 45  1  0
 19 20  2  0
 19 46  1  0
 20 21  1  0
 20 28  1  0
 21 22  1  0
 21 47  1  0
 22 23  1  1
 22 24  1  0
 22 25  1  0
 24 48  1  0
 24 49  1  0
 24 50  1  0
 25 26  1  0
 25 27  1  0
 25 51  1  6
 26 52  1  0
 26 53  1  0
 26 54  1  0
 27 55  1  0
 28 29  2  0
 28 56  1  0
 29 30  1  0
M  CHG  1   2   1
M  END
>  <DOCK_score>  (1) 
-43.276661

>  <SMILES>  (1) 
C[NH2+]Cc1ccc(C(O)c2ccc(Nc3ccc(N[C@H](C)C(C)O)cc3F)o2)o1

$$$$
