Cc1cc(O)ccc1N[C@H]1C[C@H]1[NH2+][C@@H](CC1=NCCNC1=O)c1ccccc1
     RDKit          3D

 55 58  0  0  1  0  0  0  0  0999 V2000
  127.6989  135.9743  158.0704 C   0  0  0  0  0  0  0  0  0  0  0  0
  127.4950  135.2756  159.3900 C   0  0  0  0  0  0  0  0  0  0  0  0
  126.4597  135.6571  160.2210 C   0  0  0  0  0  0  0  0  0  0  0  0
  126.2753  135.0179  161.4379 C   0  0  0  0  0  0  0  0  0  0  0  0
  125.2594  135.3983  162.2582 O   0  0  0  0  0  0  0  0  0  0  0  0
  127.1269  133.9915  161.8193 C   0  0  0  0  0  0  0  0  0  0  0  0
  128.1590  133.6051  160.9872 C   0  0  0  0  0  0  0  0  0  0  0  0
  128.3443  134.2445  159.7684 C   0  0  0  0  0  0  0  0  0  0  0  0
  129.3900  133.8535  158.9245 N   0  0  0  0  0  0  0  0  0  0  0  0
  130.6230  133.3031  159.4927 C   0  0  1  0  0  0  0  0  0  0  0  0
  130.5041  132.3944  160.0828 H   0  0  0  0  0  0  0  0  0  0  0  0
  131.9060  133.4497  158.6721 C   0  0  0  0  0  0  0  0  0  0  0  0
  131.7023  134.2945  159.9323 C   0  0  1  0  0  0  0  0  0  0  0  0
  132.2936  134.0378  160.8113 H   0  0  0  0  0  0  0  0  0  0  0  0
  131.4227  135.7254  159.7523 N   0  0  0  0  0  0  0  0  0  0  0  0
  131.5904  135.9825  158.7911 H   0  0  0  0  0  0  0  0  0  0  0  0
  130.4595  135.9121  159.9873 H   0  0  0  0  0  0  0  0  0  0  0  0
  132.3017  136.5102  160.6296 C   0  0  1  0  0  0  0  0  0  0  0  0
  133.3424  136.3085  160.3757 H   0  0  0  0  0  0  0  0  0  0  0  0
  132.0106  138.0004  160.4420 C   0  0  0  0  0  0  0  0  0  0  0  0
  133.1857  138.8073  160.9312 C   0  0  0  0  0  0  0  0  0  0  0  0
  134.3385  138.6501  160.3998 N   0  0  0  0  0  0  0  0  0  0  0  0
  135.4908  139.4218  160.8617 C   0  0  0  0  0  0  0  0  0  0  0  0
  135.0652  140.8313  161.2682 C   0  0  0  0  0  0  0  0  0  0  0  0
  133.9314  140.7608  162.1935 N   0  0  0  0  0  0  0  0  0  0  0  0
  133.0115  139.7840  162.0365 C   0  0  0  0  0  0  0  0  0  0  0  0
  132.0586  139.7062  162.7857 O   0  0  0  0  0  0  0  0  0  0  0  0
  132.0514  136.1261  162.0651 C   0  0  0  0  0  0  0  0  0  0  0  0
  133.0767  136.2009  162.9894 C   0  0  0  0  0  0  0  0  0  0  0  0
  132.8460  135.8533  164.3071 C   0  0  0  0  0  0  0  0  0  0  0  0
  131.5925  135.4216  164.6989 C   0  0  0  0  0  0  0  0  0  0  0  0
  130.5688  135.3415  163.7735 C   0  0  0  0  0  0  0  0  0  0  0  0
  130.7981  135.6941  162.4566 C   0  0  0  0  0  0  0  0  0  0  0  0
  127.1263  135.4632  157.2965 H   0  0  0  0  0  0  0  0  0  0  0  0
  127.3608  137.0074  158.1504 H   0  0  0  0  0  0  0  0  0  0  0  0
  128.7573  135.9575  157.8101 H   0  0  0  0  0  0  0  0  0  0  0  0
  125.7964  136.4564  159.9251 H   0  0  0  0  0  0  0  0  0  0  0  0
  124.7204  136.1207  161.9080 H   0  0  0  0  0  0  0  0  0  0  0  0
  126.9829  133.4946  162.7673 H   0  0  0  0  0  0  0  0  0  0  0  0
  128.8218  132.8056  161.2841 H   0  0  0  0  0  0  0  0  0  0  0  0
  129.3000  133.9506  157.9635 H   0  0  0  0  0  0  0  0  0  0  0  0
  132.6313  132.6376  158.7225 H   0  0  0  0  0  0  0  0  0  0  0  0
  131.8326  133.9557  157.7095 H   0  0  0  0  0  0  0  0  0  0  0  0
  131.8423  138.2075  159.3852 H   0  0  0  0  0  0  0  0  0  0  0  0
  131.1215  138.2715  161.0114 H   0  0  0  0  0  0  0  0  0  0  0  0
  136.2284  139.4847  160.0615 H   0  0  0  0  0  0  0  0  0  0  0  0
  135.9332  138.9171  161.7206 H   0  0  0  0  0  0  0  0  0  0  0  0
  134.7737  141.3920  160.3801 H   0  0  0  0  0  0  0  0  0  0  0  0
  135.9003  141.3340  161.7561 H   0  0  0  0  0  0  0  0  0  0  0  0
  133.8422  141.4082  162.9104 H   0  0  0  0  0  0  0  0  0  0  0  0
  134.0571  136.5342  162.6825 H   0  0  0  0  0  0  0  0  0  0  0  0
  133.6459  135.9156  165.0301 H   0  0  0  0  0  0  0  0  0  0  0  0
  131.4132  135.1465  165.7277 H   0  0  0  0  0  0  0  0  0  0  0  0
  129.5896  135.0039  164.0794 H   0  0  0  0  0  0  0  0  0  0  0  0
  129.9983  135.6315  161.7336 H   0  0  0  0  0  0  0  0  0  0  0  0
  1  2  1  0
  1 34  1  0
  1 35  1  0
  1 36  1  0
  2  8  2  0
  2  3  1  0
  3  4  2  0
  3 37  1  0
  4  5  1  0
  4  6  1  0
  5 38  1  0
  6  7  2  0
  6 39  1  0
  7  8  1  0
  7 40  1  0
  8  9  1  0
  9 10  1  0
  9 41  1  0
 10 11  1  1
 10 13  1  0
 10 12  1  0
 12 13  1  0
 12 42  1  0
 12 43  1  0
 13 14  1  1
 13 15  1  0
 15 16  1  0
 15 17  1  0
 15 18  1  0
 18 19  1  6
 18 20  1  0
 18 28  1  0
 20 21  1  0
 20 44  1  0
 20 45  1  0
 21 26  1  0
 21 22  2  0
 22 23  1  0
 23 24  1  0
 23 46  1  0
 23 47  1  0
 24 25  1  0
 24 48  1  0
 24 49  1  0
 25 26  1  0
 25 50  1  0
 26 27  2  0
 28 33  1  0
 28 29  2  0
 29 30  1  0
 29 51  1  0
 30 31  2  0
 30 52  1  0
 31 32  1  0
 31 53  1  0
 32 33  2  0
 32 54  1  0
 33 55  1  0
M  CHG  1  15   1
M  END
>  <DOCK_score>  (1) 
-42.017822

>  <SMILES>  (1) 
Cc1cc(O)ccc1N[C@H]1C[C@H]1[NH2+][C@@H](CC1=NCCNC1=O)c1ccccc1

$$$$
