C[C@H](Cc1c[nH]c2ccc(O)cc12)Nc1nc2c(cc1CC1CCC[NH2+]C1)CCC2
     RDKit          3D

 63 67  0  0  1  0  0  0  0  0999 V2000
  130.9631  134.1869  159.5175 C   0  0  0  0  0  0  0  0  0  0  0  0
  129.7549  135.0672  159.8437 C   0  0  2  0  0  0  0  0  0  0  0  0
  129.3471  134.7799  160.8128 H   0  0  0  0  0  0  0  0  0  0  0  0
  128.6847  134.8844  158.7656 C   0  0  0  0  0  0  0  0  0  0  0  0
  127.9151  133.6163  159.0317 C   0  0  0  0  0  0  0  0  0  0  0  0
  128.2071  132.3924  158.5639 C   0  0  0  0  0  0  0  0  0  0  0  0
  127.2869  131.4877  159.0183 N   0  0  0  0  0  0  0  0  0  0  0  0
  127.2906  130.5392  158.8154 H   0  0  0  0  0  0  0  0  0  0  0  0
  126.3499  132.1267  159.8026 C   0  0  0  0  0  0  0  0  0  0  0  0
  125.2230  131.6897  160.4912 C   0  0  0  0  0  0  0  0  0  0  0  0
  124.4628  132.5872  161.2070 C   0  0  0  0  0  0  0  0  0  0  0  0
  124.8103  133.9351  161.2505 C   0  0  0  0  0  0  0  0  0  0  0  0
  124.0487  134.8082  161.9626 O   0  0  0  0  0  0  0  0  0  0  0  0
  125.9248  134.3885  160.5739 C   0  0  0  0  0  0  0  0  0  0  0  0
  126.7033  133.4870  159.8445 C   0  0  0  0  0  0  0  0  0  0  0  0
  130.1708  136.4714  159.8857 N   0  0  0  0  0  0  0  0  0  0  0  0
  129.5102  137.3672  160.7183 C   0  0  0  0  0  0  0  0  0  0  0  0
  128.5070  136.9455  161.4698 N   0  0  0  0  0  0  0  0  0  0  0  0
  127.8469  137.7595  162.2786 C   0  0  0  0  0  0  0  0  0  0  0  0
  128.1970  139.0923  162.3646 C   0  0  0  0  0  0  0  0  0  0  0  0
  129.2417  139.5765  161.5868 C   0  0  0  0  0  0  0  0  0  0  0  0
  129.9100  138.6990  160.7531 C   0  0  0  0  0  0  0  0  0  0  0  0
  131.0535  139.1777  159.8960 C   0  0  0  0  0  0  0  0  0  0  0  0
  132.3656  139.0342  160.6697 C   0  0  1  0  0  0  0  0  0  0  0  0
  133.5409  139.0343  159.6880 C   0  0  0  0  0  0  0  0  0  0  0  0
  134.8521  138.9693  160.4765 C   0  0  0  0  0  0  0  0  0  0  0  0
  134.9123  140.1457  161.4532 C   0  0  0  0  0  0  0  0  0  0  0  0
  133.7774  140.0745  162.3812 N   0  0  0  0  0  0  0  0  0  0  0  0
  133.7915  139.1868  162.8606 H   0  0  0  0  0  0  0  0  0  0  0  0
  133.8495  140.8204  163.0569 H   0  0  0  0  0  0  0  0  0  0  0  0
  132.5175  140.2077  161.6400 C   0  0  0  0  0  0  0  0  0  0  0  0
  127.2925  139.8012  163.3480 C   0  0  0  0  0  0  0  0  0  0  0  0
  126.0826  138.8609  163.5345 C   0  0  0  0  0  0  0  0  0  0  0  0
  126.6854  137.4780  163.2094 C   0  0  0  0  0  0  0  0  0  0  0  0
  131.6644  134.7472  158.8991 H   0  0  0  0  0  0  0  0  0  0  0  0
  131.4543  133.8866  160.4431 H   0  0  0  0  0  0  0  0  0  0  0  0
  130.6312  133.2999  158.9779 H   0  0  0  0  0  0  0  0  0  0  0  0
  128.0022  135.7341  158.7834 H   0  0  0  0  0  0  0  0  0  0  0  0
  129.1615  134.8217  157.7874 H   0  0  0  0  0  0  0  0  0  0  0  0
  129.0456  132.1563  157.9255 H   0  0  0  0  0  0  0  0  0  0  0  0
  124.9445  130.6466  160.4647 H   0  0  0  0  0  0  0  0  0  0  0  0
  123.5887  132.2426  161.7395 H   0  0  0  0  0  0  0  0  0  0  0  0
  124.3666  135.7209  161.9348 H   0  0  0  0  0  0  0  0  0  0  0  0
  126.1935  135.4340  160.6087 H   0  0  0  0  0  0  0  0  0  0  0  0
  130.9071  136.7758  159.3327 H   0  0  0  0  0  0  0  0  0  0  0  0
  129.5289  140.6165  161.6360 H   0  0  0  0  0  0  0  0  0  0  0  0
  131.1010  138.5793  158.9862 H   0  0  0  0  0  0  0  0  0  0  0  0
  130.8984  140.2245  159.6347 H   0  0  0  0  0  0  0  0  0  0  0  0
  132.3582  138.0985  161.2286 H   0  0  0  0  0  0  0  0  0  0  0  0
  133.4672  138.1674  159.0312 H   0  0  0  0  0  0  0  0  0  0  0  0
  133.5185  139.9470  159.0926 H   0  0  0  0  0  0  0  0  0  0  0  0
  134.8968  138.0324  161.0319 H   0  0  0  0  0  0  0  0  0  0  0  0
  135.6945  139.0242  159.7871 H   0  0  0  0  0  0  0  0  0  0  0  0
  135.8447  140.1026  162.0160 H   0  0  0  0  0  0  0  0  0  0  0  0
  134.8674  141.0819  160.8968 H   0  0  0  0  0  0  0  0  0  0  0  0
  132.5238  141.1429  161.0802 H   0  0  0  0  0  0  0  0  0  0  0  0
  131.6822  140.2100  162.3403 H   0  0  0  0  0  0  0  0  0  0  0  0
  126.9677  140.7601  162.9441 H   0  0  0  0  0  0  0  0  0  0  0  0
  127.8088  139.9464  164.2969 H   0  0  0  0  0  0  0  0  0  0  0  0
  125.2860  139.1109  162.8338 H   0  0  0  0  0  0  0  0  0  0  0  0
  125.7177  138.8929  164.5611 H   0  0  0  0  0  0  0  0  0  0  0  0
  125.9457  136.8507  162.7119 H   0  0  0  0  0  0  0  0  0  0  0  0
  127.0392  136.9945  164.1200 H   0  0  0  0  0  0  0  0  0  0  0  0
  1  2  1  0
  1 35  1  0
  1 36  1  0
  1 37  1  0
  2  3  1  1
  2  4  1  0
  2 16  1  0
  4  5  1  0
  4 38  1  0
  4 39  1  0
  5 15  1  0
  5  6  2  0
  6  7  1  0
  6 40  1  0
  7  8  1  0
  7  9  1  0
  9 15  2  0
  9 10  1  0
 10 11  2  0
 10 41  1  0
 11 12  1  0
 11 42  1  0
 12 13  1  0
 12 14  2  0
 13 43  1  0
 14 15  1  0
 14 44  1  0
 16 17  1  0
 16 45  1  0
 17 22  1  0
 17 18  2  0
 18 19  1  0
 19 34  1  0
 19 20  2  0
 20 21  1  0
 20 32  1  0
 21 22  2  0
 21 46  1  0
 22 23  1  0
 23 24  1  0
 23 47  1  0
 23 48  1  0
 24 31  1  0
 24 25  1  0
 24 49  1  1
 25 26  1  0
 25 50  1  0
 25 51  1  0
 26 27  1  0
 26 52  1  0
 26 53  1  0
 27 28  1  0
 27 54  1  0
 27 55  1  0
 28 29  1  0
 28 30  1  0
 28 31  1  0
 31 56  1  0
 31 57  1  0
 32 33  1  0
 32 58  1  0
 32 59  1  0
 33 34  1  0
 33 60  1  0
 33 61  1  0
 34 62  1  0
 34 63  1  0
M  CHG  1  28   1
M  END
>  <DOCK_score>  (1) 
-43.191822

>  <SMILES>  (1) 
C[C@H](Cc1c[nH]c2ccc(O)cc12)Nc1nc2c(cc1CC1CCC[NH2+]C1)CCC2

$$$$
