Oc1cc(C[NH+]=C(NCc2cncs2)NC2CC=CC2)cc(Oc2cncs2)c1
     RDKit          3D

 51 54  0  0  1  0  0  0  0  0999 V2000
  124.5033  135.5708  163.2010 O   0  0  0  0  0  0  0  0  0  0  0  0
  125.7173  135.7760  163.7763 C   0  0  0  0  0  0  0  0  0  0  0  0
  126.7688  136.2751  163.0201 C   0  0  0  0  0  0  0  0  0  0  0  0
  128.0033  136.4841  163.6043 C   0  0  0  0  0  0  0  0  0  0  0  0
  129.1430  137.0260  162.7808 C   0  0  0  0  0  0  0  0  0  0  0  0
  129.1953  136.3226  161.4967 N   0  0  0  0  0  0  0  0  0  0  0  0
  128.5493  135.6266  161.2983 H   0  0  0  0  0  0  0  0  0  0  0  0
  130.1098  136.6319  160.6209 C   0  0  0  0  0  0  0  0  0  0  0  0
  131.0255  137.6181  160.9021 N   0  0  0  0  0  0  0  0  0  0  0  0
  132.0532  137.9655  159.9176 C   0  0  0  0  0  0  0  0  0  0  0  0
  132.9227  139.0671  160.4669 C   0  0  0  0  0  0  0  0  0  0  0  0
  133.9635  139.6308  159.8463 C   0  0  0  0  0  0  0  0  0  0  0  0
  134.5624  140.5803  160.5363 N   0  0  0  0  0  0  0  0  0  0  0  0
  134.0912  140.8421  161.7085 C   0  0  0  0  0  0  0  0  0  0  0  0
  132.7511  139.8346  162.0437 S   0  0  0  0  0  0  0  0  0  0  0  0
  130.1588  135.9716  159.4160 N   0  0  0  0  0  0  0  0  0  0  0  0
  129.1832  134.9206  159.1164 C   0  0  0  0  0  0  0  0  0  0  0  0
  129.4029  133.6853  160.0202 C   0  0  0  0  0  0  0  0  0  0  0  0
  129.1182  132.5003  159.1269 C   0  0  0  0  0  0  0  0  0  0  0  0
  129.1318  132.8464  157.8685 C   0  0  0  0  0  0  0  0  0  0  0  0
  129.4278  134.3199  157.7126 C   0  0  0  0  0  0  0  0  0  0  0  0
  128.1963  136.1916  164.9409 C   0  0  0  0  0  0  0  0  0  0  0  0
  127.1468  135.6969  165.7027 C   0  0  0  0  0  0  0  0  0  0  0  0
  127.3357  135.4140  167.0181 O   0  0  0  0  0  0  0  0  0  0  0  0
  127.1045  136.4013  167.9226 C   0  0  0  0  0  0  0  0  0  0  0  0
  127.2389  136.3003  169.2540 C   0  0  0  0  0  0  0  0  0  0  0  0
  126.9570  137.4070  169.9143 N   0  0  0  0  0  0  0  0  0  0  0  0
  126.5843  138.4276  169.2207 C   0  0  0  0  0  0  0  0  0  0  0  0
  126.5678  138.0389  167.5560 S   0  0  0  0  0  0  0  0  0  0  0  0
  125.9062  135.4874  165.1185 C   0  0  0  0  0  0  0  0  0  0  0  0
  124.4688  135.8014  162.2626 H   0  0  0  0  0  0  0  0  0  0  0  0
  126.6217  136.5006  161.9742 H   0  0  0  0  0  0  0  0  0  0  0  0
  130.0811  136.8765  163.3154 H   0  0  0  0  0  0  0  0  0  0  0  0
  128.9906  138.0910  162.6056 H   0  0  0  0  0  0  0  0  0  0  0  0
  130.9884  138.0867  161.7507 H   0  0  0  0  0  0  0  0  0  0  0  0
  132.6664  137.0892  159.7077 H   0  0  0  0  0  0  0  0  0  0  0  0
  131.5759  138.3038  158.9980 H   0  0  0  0  0  0  0  0  0  0  0  0
  134.2854  139.3343  158.8589 H   0  0  0  0  0  0  0  0  0  0  0  0
  134.4863  141.5892  162.3811 H   0  0  0  0  0  0  0  0  0  0  0  0
  130.8394  136.2018  158.7641 H   0  0  0  0  0  0  0  0  0  0  0  0
  128.1646  135.2975  159.2086 H   0  0  0  0  0  0  0  0  0  0  0  0
  130.4325  133.6537  160.3763 H   0  0  0  0  0  0  0  0  0  0  0  0
  128.7097  133.7020  160.8612 H   0  0  0  0  0  0  0  0  0  0  0  0
  128.9280  131.4986  159.4830 H   0  0  0  0  0  0  0  0  0  0  0  0
  128.9544  132.1687  157.0466 H   0  0  0  0  0  0  0  0  0  0  0  0
  128.7516  134.7681  156.9846 H   0  0  0  0  0  0  0  0  0  0  0  0
  130.4642  134.4709  157.4103 H   0  0  0  0  0  0  0  0  0  0  0  0
  129.1634  136.3516  165.3942 H   0  0  0  0  0  0  0  0  0  0  0  0
  127.5545  135.3907  169.7434 H   0  0  0  0  0  0  0  0  0  0  0  0
  126.3206  139.3905  169.6323 H   0  0  0  0  0  0  0  0  0  0  0  0
  125.0896  135.0979  165.7085 H   0  0  0  0  0  0  0  0  0  0  0  0
  1  2  1  0
  1 31  1  0
  2 30  2  0
  2  3  1  0
  3  4  2  0
  3 32  1  0
  4  5  1  0
  4 22  1  0
  5  6  1  0
  5 33  1  0
  5 34  1  0
  6  7  1  0
  8  6  2  0
  8  9  1  0
  8 16  1  0
  9 10  1  0
  9 35  1  0
 10 11  1  0
 10 36  1  0
 10 37  1  0
 11 15  1  0
 11 12  2  0
 12 13  1  0
 12 38  1  0
 13 14  2  0
 14 15  1  0
 14 39  1  0
 16 17  1  0
 16 40  1  0
 17 21  1  0
 17 18  1  0
 17 41  1  0
 18 19  1  0
 18 42  1  0
 18 43  1  0
 19 20  2  0
 19 44  1  0
 20 21  1  0
 20 45  1  0
 21 46  1  0
 21 47  1  0
 22 23  2  0
 22 48  1  0
 23 24  1  0
 23 30  1  0
 24 25  1  0
 25 29  1  0
 25 26  2  0
 26 27  1  0
 26 49  1  0
 27 28  2  0
 28 29  1  0
 28 50  1  0
 30 51  1  0
M  CHG  1   6   1
M  END
>  <DOCK_score>  (1) 
-43.671097

>  <SMILES>  (1) 
Oc1cc(C[NH+]=C(NCc2cncs2)NC2CC=CC2)cc(Oc2cncs2)c1

$$$$
