C=CCCC(=C)c1c[nH]c(N[C@@H]2C[C@H](O)C[C@@H]2NC2c3cc(O)ccc3-c3ccc(O)cc32)[nH+]1
     RDKit          3D

 65 69  0  0  1  0  0  0  0  0999 V2000
  136.6824  141.3821  163.6347 C   0  0  0  0  0  0  0  0  0  0  0  0
  136.3872  141.6698  162.3913 C   0  0  0  0  0  0  0  0  0  0  0  0
  136.1793  140.5623  161.3906 C   0  0  0  0  0  0  0  0  0  0  0  0
  134.7621  140.6495  160.8207 C   0  0  0  0  0  0  0  0  0  0  0  0
  134.5541  139.5420  159.8199 C   0  0  0  0  0  0  0  0  0  0  0  0
  134.8423  139.7414  158.5406 C   0  0  0  0  0  0  0  0  0  0  0  0
  134.0294  138.2343  160.2638 C   0  0  0  0  0  0  0  0  0  0  0  0
  134.2189  137.6687  161.4844 C   0  0  0  0  0  0  0  0  0  0  0  0
  133.5632  136.4624  161.4701 N   0  0  0  0  0  0  0  0  0  0  0  0
  133.5164  135.8257  162.2004 H   0  0  0  0  0  0  0  0  0  0  0  0
  132.9915  136.3241  160.2426 C   0  0  0  0  0  0  0  0  0  0  0  0
  132.2381  135.2418  159.8219 N   0  0  0  0  0  0  0  0  0  0  0  0
  132.5049  133.9080  160.3659 C   0  0  2  0  0  0  0  0  0  0  0  0
  133.5791  133.7519  160.4633 H   0  0  0  0  0  0  0  0  0  0  0  0
  131.8941  132.8294  159.4456 C   0  0  0  0  0  0  0  0  0  0  0  0
  131.3755  131.7454  160.4229 C   0  0  2  0  0  0  0  0  0  0  0  0
  132.1908  131.1024  160.7546 H   0  0  0  0  0  0  0  0  0  0  0  0
  130.3346  130.9749  159.8187 O   0  0  0  0  0  0  0  0  0  0  0  0
  130.8235  132.5843  161.6022 C   0  0  0  0  0  0  0  0  0  0  0  0
  131.8231  133.7516  161.7365 C   0  0  2  0  0  0  0  0  0  0  0  0
  132.5667  133.5207  162.4992 H   0  0  0  0  0  0  0  0  0  0  0  0
  131.1098  134.9871  162.0875 N   0  0  0  0  0  0  0  0  0  0  0  0
  130.8607  135.0583  163.5334 C   0  0  0  0  0  0  0  0  0  0  0  0
  132.0778  135.5976  164.2444 C   0  0  0  0  0  0  0  0  0  0  0  0
  133.3724  135.1389  164.3400 C   0  0  0  0  0  0  0  0  0  0  0  0
  134.3093  135.8505  165.0774 C   0  0  0  0  0  0  0  0  0  0  0  0
  135.5870  135.3974  165.1712 O   0  0  0  0  0  0  0  0  0  0  0  0
  133.9401  137.0249  165.7193 C   0  0  0  0  0  0  0  0  0  0  0  0
  132.6454  137.4878  165.6274 C   0  0  0  0  0  0  0  0  0  0  0  0
  131.6992  136.7754  164.8868 C   0  0  0  0  0  0  0  0  0  0  0  0
  130.2630  137.0416  164.6253 C   0  0  0  0  0  0  0  0  0  0  0  0
  129.4311  138.0831  165.0429 C   0  0  0  0  0  0  0  0  0  0  0  0
  128.1077  138.1052  164.6589 C   0  0  0  0  0  0  0  0  0  0  0  0
  127.5964  137.0940  163.8565 C   0  0  0  0  0  0  0  0  0  0  0  0
  126.2910  137.1199  163.4797 O   0  0  0  0  0  0  0  0  0  0  0  0
  128.4193  136.0567  163.4388 C   0  0  0  0  0  0  0  0  0  0  0  0
  129.7431  136.0310  163.8207 C   0  0  0  0  0  0  0  0  0  0  0  0
  133.2764  137.3812  159.5224 N   0  0  0  0  0  0  0  0  0  0  0  0
  132.9930  137.5313  158.6070 H   0  0  0  0  0  0  0  0  0  0  0  0
  136.8314  142.1757  164.3519 H   0  0  0  0  0  0  0  0  0  0  0  0
  136.7767  140.3513  163.9427 H   0  0  0  0  0  0  0  0  0  0  0  0
  136.2927  142.7006  162.0833 H   0  0  0  0  0  0  0  0  0  0  0  0
  136.3148  139.5988  161.8817 H   0  0  0  0  0  0  0  0  0  0  0  0
  136.9030  140.6630  160.5817 H   0  0  0  0  0  0  0  0  0  0  0  0
  134.6266  141.6130  160.3295 H   0  0  0  0  0  0  0  0  0  0  0  0
  134.0384  140.5488  161.6294 H   0  0  0  0  0  0  0  0  0  0  0  0
  135.2259  140.6974  158.2161 H   0  0  0  0  0  0  0  0  0  0  0  0
  134.6932  138.9478  157.8235 H   0  0  0  0  0  0  0  0  0  0  0  0
  134.7779  138.0877  162.3081 H   0  0  0  0  0  0  0  0  0  0  0  0
  131.5335  135.3666  159.1671 H   0  0  0  0  0  0  0  0  0  0  0  0
  132.6566  132.4150  158.7860 H   0  0  0  0  0  0  0  0  0  0  0  0
  131.0706  133.2447  158.8647 H   0  0  0  0  0  0  0  0  0  0  0  0
  129.6094  131.5054  159.4614 H   0  0  0  0  0  0  0  0  0  0  0  0
  130.8047  131.9911  162.5164 H   0  0  0  0  0  0  0  0  0  0  0  0
  129.8271  132.9601  161.3696 H   0  0  0  0  0  0  0  0  0  0  0  0
  130.2486  135.0674  161.5678 H   0  0  0  0  0  0  0  0  0  0  0  0
  130.6074  134.0709  163.9194 H   0  0  0  0  0  0  0  0  0  0  0  0
  133.6592  134.2255  163.8403 H   0  0  0  0  0  0  0  0  0  0  0  0
  136.1654  135.9592  165.7049 H   0  0  0  0  0  0  0  0  0  0  0  0
  134.6698  137.5773  166.2929 H   0  0  0  0  0  0  0  0  0  0  0  0
  132.3620  138.4016  166.1284 H   0  0  0  0  0  0  0  0  0  0  0  0
  129.8252  138.8715  165.6671 H   0  0  0  0  0  0  0  0  0  0  0  0
  127.4664  138.9114  164.9834 H   0  0  0  0  0  0  0  0  0  0  0  0
  126.0277  136.3746  162.9226 H   0  0  0  0  0  0  0  0  0  0  0  0
  128.0220  135.2701  162.8145 H   0  0  0  0  0  0  0  0  0  0  0  0
  1  2  2  0
  1 40  1  0
  1 41  1  0
  2  3  1  0
  2 42  1  0
  3  4  1  0
  3 43  1  0
  3 44  1  0
  4  5  1  0
  4 45  1  0
  4 46  1  0
  5  6  2  0
  5  7  1  0
  6 47  1  0
  6 48  1  0
  7 38  1  0
  7  8  2  0
  8  9  1  0
  8 49  1  0
  9 10  1  0
  9 11  1  0
 11 12  1  0
 11 38  2  0
 12 13  1  0
 12 50  1  0
 13 14  1  1
 13 20  1  0
 13 15  1  0
 15 16  1  0
 15 51  1  0
 15 52  1  0
 16 17  1  1
 16 18  1  0
 16 19  1  0
 18 53  1  0
 19 20  1  0
 19 54  1  0
 19 55  1  0
 20 21  1  1
 20 22  1  0
 22 23  1  0
 22 56  1  0
 23 37  1  0
 23 24  1  0
 23 57  1  0
 24 30  1  0
 24 25  2  0
 25 26  1  0
 25 58  1  0
 26 27  1  0
 26 28  2  0
 27 59  1  0
 28 29  1  0
 28 60  1  0
 29 30  2  0
 29 61  1  0
 30 31  1  0
 31 37  2  0
 31 32  1  0
 32 33  2  0
 32 62  1  0
 33 34  1  0
 33 63  1  0
 34 35  1  0
 34 36  2  0
 35 64  1  0
 36 37  1  0
 36 65  1  0
 38 39  1  0
M  CHG  1  38   1
M  END
>  <DOCK_score>  (1) 
-44.008423

>  <SMILES>  (1) 
C=CCCC(=C)c1c[nH]c(N[C@@H]2C[C@H](O)C[C@@H]2NC2c3cc(O)ccc3-c3ccc(O)cc32)[nH+]1

$$$$
