Nc1ccc(-c2c[nH]c(Nc3ccc(Nc4ccc(F)cc4)cc3)[nH+]2)cc1
     RDKit          3D

 46 49  0  0  1  0  0  0  0  0999 V2000
  131.3611  129.2161  151.3807 N   0  0  0  0  0  0  0  0  0  0  0  0
  131.0843  129.9153  152.5580 C   0  0  0  0  0  0  0  0  0  0  0  0
  130.1521  130.9463  152.5502 C   0  0  0  0  0  0  0  0  0  0  0  0
  129.8778  131.6379  153.7110 C   0  0  0  0  0  0  0  0  0  0  0  0
  130.5360  131.3023  154.8932 C   0  0  0  0  0  0  0  0  0  0  0  0
  130.2425  132.0450  156.1434 C   0  0  0  0  0  0  0  0  0  0  0  0
  129.7576  131.5128  157.2927 C   0  0  0  0  0  0  0  0  0  0  0  0
  129.6405  132.5455  158.1920 N   0  0  0  0  0  0  0  0  0  0  0  0
  129.3234  132.4783  159.1062 H   0  0  0  0  0  0  0  0  0  0  0  0
  130.0491  133.6806  157.5617 C   0  0  0  0  0  0  0  0  0  0  0  0
  130.0823  134.9469  158.1215 N   0  0  0  0  0  0  0  0  0  0  0  0
  129.1619  135.2967  159.1173 C   0  0  0  0  0  0  0  0  0  0  0  0
  129.5109  136.2239  160.0907 C   0  0  0  0  0  0  0  0  0  0  0  0
  128.6055  136.5649  161.0755 C   0  0  0  0  0  0  0  0  0  0  0  0
  127.3414  135.9893  161.0861 C   0  0  0  0  0  0  0  0  0  0  0  0
  126.4212  136.3393  162.0810 N   0  0  0  0  0  0  0  0  0  0  0  0
  126.7271  136.1139  163.4267 C   0  0  0  0  0  0  0  0  0  0  0  0
  126.2087  136.9500  164.4073 C   0  0  0  0  0  0  0  0  0  0  0  0
  126.5076  136.7222  165.7363 C   0  0  0  0  0  0  0  0  0  0  0  0
  127.3324  135.6676  166.0905 C   0  0  0  0  0  0  0  0  0  0  0  0
  127.6276  135.4498  167.3907 F   0  0  0  0  0  0  0  0  0  0  0  0
  127.8553  134.8365  165.1141 C   0  0  0  0  0  0  0  0  0  0  0  0
  127.5546  135.0572  163.7844 C   0  0  0  0  0  0  0  0  0  0  0  0
  126.9924  135.0621  160.1126 C   0  0  0  0  0  0  0  0  0  0  0  0
  127.8999  134.7169  159.1311 C   0  0  0  0  0  0  0  0  0  0  0  0
  130.4112  133.3764  156.3389 N   0  0  0  0  0  0  0  0  0  0  0  0
  130.7466  134.0036  155.6794 H   0  0  0  0  0  0  0  0  0  0  0  0
  131.4743  130.2715  154.8974 C   0  0  0  0  0  0  0  0  0  0  0  0
  131.7414  129.5788  153.7355 C   0  0  0  0  0  0  0  0  0  0  0  0
  130.9025  129.4505  150.5583 H   0  0  0  0  0  0  0  0  0  0  0  0
  132.0114  128.4968  151.3851 H   0  0  0  0  0  0  0  0  0  0  0  0
  129.6423  131.2059  151.6341 H   0  0  0  0  0  0  0  0  0  0  0  0
  129.1533  132.4388  153.7045 H   0  0  0  0  0  0  0  0  0  0  0  0
  129.5145  130.4754  157.4689 H   0  0  0  0  0  0  0  0  0  0  0  0
  130.7431  135.5917  157.8238 H   0  0  0  0  0  0  0  0  0  0  0  0
  130.4922  136.6748  160.0799 H   0  0  0  0  0  0  0  0  0  0  0  0
  128.8784  137.2825  161.8350 H   0  0  0  0  0  0  0  0  0  0  0  0
  125.5714  136.7383  161.8370 H   0  0  0  0  0  0  0  0  0  0  0  0
  125.5688  137.7751  164.1310 H   0  0  0  0  0  0  0  0  0  0  0  0
  126.1015  137.3694  166.4994 H   0  0  0  0  0  0  0  0  0  0  0  0
  128.4986  134.0151  165.3928 H   0  0  0  0  0  0  0  0  0  0  0  0
  127.9628  134.4087  163.0233 H   0  0  0  0  0  0  0  0  0  0  0  0
  126.0110  134.6114  160.1230 H   0  0  0  0  0  0  0  0  0  0  0  0
  127.6287  133.9956  158.3744 H   0  0  0  0  0  0  0  0  0  0  0  0
  131.9890  130.0130  155.8111 H   0  0  0  0  0  0  0  0  0  0  0  0
  132.4651  128.7771  153.7393 H   0  0  0  0  0  0  0  0  0  0  0  0
  1  2  1  0
  1 30  1  0
  1 31  1  0
  2 29  2  0
  2  3  1  0
  3  4  2  0
  3 32  1  0
  4  5  1  0
  4 33  1  0
  5  6  1  0
  5 28  2  0
  6 26  1  0
  6  7  2  0
  7  8  1  0
  7 34  1  0
  8  9  1  0
  8 10  1  0
 10 11  1  0
 10 26  2  0
 11 12  1  0
 11 35  1  0
 12 25  1  0
 12 13  2  0
 13 14  1  0
 13 36  1  0
 14 15  2  0
 14 37  1  0
 15 16  1  0
 15 24  1  0
 16 17  1  0
 16 38  1  0
 17 23  1  0
 17 18  2  0
 18 19  1  0
 18 39  1  0
 19 20  2  0
 19 40  1  0
 20 21  1  0
 20 22  1  0
 22 23  2  0
 22 41  1  0
 23 42  1  0
 24 25  2  0
 24 43  1  0
 25 44  1  0
 26 27  1  0
 28 29  1  0
 28 45  1  0
 29 46  1  0
M  CHG  1  26   1
M  END
>  <DOCK_score>  (1) 
-57.704433

>  <SMILES>  (1) 
Nc1ccc(-c2c[nH]c(Nc3ccc(Nc4ccc(F)cc4)cc3)[nH+]2)cc1

$$$$
