O=C1CC[C@H](NC(N[C@@H]2COc3cc(O)ccc3C2)=[NH+]Cc2ccccc2)CN1
     RDKit          3D

 56 59  0  0  1  0  0  0  0  0999 V2000
  124.0623  133.6442  162.2979 O   0  0  0  0  0  0  0  0  0  0  0  0
  125.2365  133.8658  162.0902 C   0  0  0  0  0  0  0  0  0  0  0  0
  126.0987  132.7348  161.6076 C   0  0  0  0  0  0  0  0  0  0  0  0
  127.5745  133.0783  161.8239 C   0  0  0  0  0  0  0  0  0  0  0  0
  127.8319  134.4842  161.2693 C   0  0  2  0  0  0  0  0  0  0  0  0
  127.4680  134.5466  160.2437 H   0  0  0  0  0  0  0  0  0  0  0  0
  129.2678  134.7730  161.2997 N   0  0  0  0  0  0  0  0  0  0  0  0
  130.0559  134.4557  160.2187 C   0  0  0  0  0  0  0  0  0  0  0  0
  131.4035  134.7268  160.2474 N   0  0  0  0  0  0  0  0  0  0  0  0
  131.9058  135.8625  161.0248 C   0  0  2  0  0  0  0  0  0  0  0  0
  131.6434  135.7337  162.0748 H   0  0  0  0  0  0  0  0  0  0  0  0
  131.2918  137.1644  160.4942 C   0  0  0  0  0  0  0  0  0  0  0  0
  131.7169  138.2380  161.3347 O   0  0  0  0  0  0  0  0  0  0  0  0
  133.0416  138.3358  161.6192 C   0  0  0  0  0  0  0  0  0  0  0  0
  133.5249  139.5400  162.1189 C   0  0  0  0  0  0  0  0  0  0  0  0
  134.8680  139.6779  162.4248 C   0  0  0  0  0  0  0  0  0  0  0  0
  135.3381  140.8557  162.9131 O   0  0  0  0  0  0  0  0  0  0  0  0
  135.7334  138.6099  162.2322 C   0  0  0  0  0  0  0  0  0  0  0  0
  135.2529  137.4157  161.7348 C   0  0  0  0  0  0  0  0  0  0  0  0
  133.9096  137.2748  161.4259 C   0  0  0  0  0  0  0  0  0  0  0  0
  133.4269  135.9542  160.8804 C   0  0  0  0  0  0  0  0  0  0  0  0
  129.5258  133.8977  159.1669 N   0  0  0  0  0  0  0  0  0  0  0  0
  128.7488  133.3247  159.2614 H   0  0  0  0  0  0  0  0  0  0  0  0
  130.1030  134.1363  157.8418 C   0  0  0  0  0  0  0  0  0  0  0  0
  130.5426  132.8255  157.2419 C   0  0  0  0  0  0  0  0  0  0  0  0
  130.5247  132.6524  155.8705 C   0  0  0  0  0  0  0  0  0  0  0  0
  130.9328  131.4519  155.3201 C   0  0  0  0  0  0  0  0  0  0  0  0
  131.3489  130.4209  156.1411 C   0  0  0  0  0  0  0  0  0  0  0  0
  131.3612  130.5919  157.5132 C   0  0  0  0  0  0  0  0  0  0  0  0
  130.9583  131.7944  158.0634 C   0  0  0  0  0  0  0  0  0  0  0  0
  127.0866  135.4960  162.1406 C   0  0  0  0  0  0  0  0  0  0  0  0
  125.6932  135.1004  162.3032 N   0  0  0  0  0  0  0  0  0  0  0  0
  125.8526  131.8295  162.1626 H   0  0  0  0  0  0  0  0  0  0  0  0
  125.9173  132.5689  160.5457 H   0  0  0  0  0  0  0  0  0  0  0  0
  127.8044  133.0555  162.8891 H   0  0  0  0  0  0  0  0  0  0  0  0
  128.2001  132.3573  161.2975 H   0  0  0  0  0  0  0  0  0  0  0  0
  129.6625  135.1882  162.0825 H   0  0  0  0  0  0  0  0  0  0  0  0
  132.0217  134.1664  159.7529 H   0  0  0  0  0  0  0  0  0  0  0  0
  131.6307  137.3409  159.4734 H   0  0  0  0  0  0  0  0  0  0  0  0
  130.2044  137.0916  160.5126 H   0  0  0  0  0  0  0  0  0  0  0  0
  132.8505  140.3703  162.2688 H   0  0  0  0  0  0  0  0  0  0  0  0
  134.6607  141.5386  163.0128 H   0  0  0  0  0  0  0  0  0  0  0  0
  136.7815  138.7133  162.4714 H   0  0  0  0  0  0  0  0  0  0  0  0
  135.9280  136.5860  161.5852 H   0  0  0  0  0  0  0  0  0  0  0  0
  133.8936  135.1398  161.4346 H   0  0  0  0  0  0  0  0  0  0  0  0
  133.6967  135.8767  159.8273 H   0  0  0  0  0  0  0  0  0  0  0  0
  129.3551  134.5981  157.1974 H   0  0  0  0  0  0  0  0  0  0  0  0
  130.9628  134.7999  157.9342 H   0  0  0  0  0  0  0  0  0  0  0  0
  130.1955  133.4564  155.2291 H   0  0  0  0  0  0  0  0  0  0  0  0
  130.9233  131.3182  154.2485 H   0  0  0  0  0  0  0  0  0  0  0  0
  131.6638  129.4815  155.7116 H   0  0  0  0  0  0  0  0  0  0  0  0
  131.6861  129.7863  158.1550 H   0  0  0  0  0  0  0  0  0  0  0  0
  130.9682  131.9282  159.1350 H   0  0  0  0  0  0  0  0  0  0  0  0
  127.1298  136.4780  161.6696 H   0  0  0  0  0  0  0  0  0  0  0  0
  127.5628  135.5482  163.1197 H   0  0  0  0  0  0  0  0  0  0  0  0
  125.0581  135.7777  162.5841 H   0  0  0  0  0  0  0  0  0  0  0  0
  1  2  2  0
  2 32  1  0
  2  3  1  0
  3  4  1  0
  3 33  1  0
  3 34  1  0
  4  5  1  0
  4 35  1  0
  4 36  1  0
  5  6  1  6
  5  7  1  0
  5 31  1  0
  7 37  1  0
  8  7  1  0
  8  9  1  0
  8 22  2  0
  9 10  1  0
  9 38  1  0
 10 11  1  1
 10 21  1  0
 10 12  1  0
 12 13  1  0
 12 39  1  0
 12 40  1  0
 13 14  1  0
 14 20  2  0
 14 15  1  0
 15 16  2  0
 15 41  1  0
 16 17  1  0
 16 18  1  0
 17 42  1  0
 18 19  2  0
 18 43  1  0
 19 20  1  0
 19 44  1  0
 20 21  1  0
 21 45  1  0
 21 46  1  0
 22 23  1  0
 22 24  1  0
 24 25  1  0
 24 47  1  0
 24 48  1  0
 25 30  1  0
 25 26  2  0
 26 27  1  0
 26 49  1  0
 27 28  2  0
 27 50  1  0
 28 29  1  0
 28 51  1  0
 29 30  2  0
 29 52  1  0
 30 53  1  0
 31 32  1  0
 31 54  1  0
 31 55  1  0
 32 56  1  0
M  CHG  1  22   1
M  END
>  <DOCK_score>  (1) 
-45.468178

>  <SMILES>  (1) 
O=C1CC[C@H](NC(N[C@@H]2COc3cc(O)ccc3C2)=[NH+]Cc2ccccc2)CN1

$$$$
