CCc1ccc(-c2c[nH]c(N[C@H](c3ccnn3C)C(c3ccccc3)c3ccccn3)[nH+]2)cc1
     RDKit          3D

 63 67  0  0  1  0  0  0  0  0999 V2000
  130.3970  128.6068  151.8609 C   0  0  0  0  0  0  0  0  0  0  0  0
  131.4865  129.6287  152.1922 C   0  0  0  0  0  0  0  0  0  0  0  0
  131.0981  130.3937  153.4312 C   0  0  0  0  0  0  0  0  0  0  0  0
  131.4795  129.9265  154.6767 C   0  0  0  0  0  0  0  0  0  0  0  0
  131.1263  130.6222  155.8151 C   0  0  0  0  0  0  0  0  0  0  0  0
  130.3842  131.7971  155.7083 C   0  0  0  0  0  0  0  0  0  0  0  0
  130.0016  132.5493  156.9283 C   0  0  0  0  0  0  0  0  0  0  0  0
  129.2495  132.0778  157.9534 C   0  0  0  0  0  0  0  0  0  0  0  0
  129.1348  133.0982  158.8658 N   0  0  0  0  0  0  0  0  0  0  0  0
  128.6512  133.0660  159.7061 H   0  0  0  0  0  0  0  0  0  0  0  0
  129.8251  134.1627  158.3735 C   0  0  0  0  0  0  0  0  0  0  0  0
  129.9573  135.3941  158.9923 N   0  0  0  0  0  0  0  0  0  0  0  0
  129.3224  135.6334  160.2907 C   0  0  2  0  0  0  0  0  0  0  0  0
  129.7148  134.9274  161.0226 H   0  0  0  0  0  0  0  0  0  0  0  0
  127.8323  135.4483  160.1630 C   0  0  0  0  0  0  0  0  0  0  0  0
  127.0925  135.6745  159.0527 C   0  0  0  0  0  0  0  0  0  0  0  0
  125.7592  135.3810  159.3567 C   0  0  0  0  0  0  0  0  0  0  0  0
  125.7006  134.9924  160.6046 N   0  0  0  0  0  0  0  0  0  0  0  0
  126.9974  135.0217  161.1336 N   0  0  0  0  0  0  0  0  0  0  0  0
  127.3793  134.6566  162.5000 C   0  0  0  0  0  0  0  0  0  0  0  0
  129.6215  137.0621  160.7490 C   0  0  2  0  0  0  0  0  0  0  0  0
  131.0495  137.4085  160.4147 C   0  0  0  0  0  0  0  0  0  0  0  0
  131.3956  138.7169  160.1334 C   0  0  0  0  0  0  0  0  0  0  0  0
  132.7064  139.0354  159.8314 C   0  0  0  0  0  0  0  0  0  0  0  0
  133.6693  138.0439  159.8010 C   0  0  0  0  0  0  0  0  0  0  0  0
  133.3221  136.7347  160.0769 C   0  0  0  0  0  0  0  0  0  0  0  0
  132.0122  136.4169  160.3839 C   0  0  0  0  0  0  0  0  0  0  0  0
  129.4151  137.1655  162.2384 C   0  0  0  0  0  0  0  0  0  0  0  0
  128.4792  138.0514  162.7383 C   0  0  0  0  0  0  0  0  0  0  0  0
  128.2968  138.1385  164.1098 C   0  0  0  0  0  0  0  0  0  0  0  0
  129.0657  137.3275  164.9307 C   0  0  0  0  0  0  0  0  0  0  0  0
  129.9819  136.4657  164.3586 C   0  0  0  0  0  0  0  0  0  0  0  0
  130.1253  136.4059  163.0489 N   0  0  0  0  0  0  0  0  0  0  0  0
  130.3442  133.8299  157.2170 N   0  0  0  0  0  0  0  0  0  0  0  0
  130.8836  134.4081  156.6553 H   0  0  0  0  0  0  0  0  0  0  0  0
  129.9982  132.2596  154.4515 C   0  0  0  0  0  0  0  0  0  0  0  0
  130.3619  131.5589  153.3197 C   0  0  0  0  0  0  0  0  0  0  0  0
  130.2832  127.9138  152.6944 H   0  0  0  0  0  0  0  0  0  0  0  0
  129.4536  129.1248  151.6876 H   0  0  0  0  0  0  0  0  0  0  0  0
  130.6778  128.0539  150.9645 H   0  0  0  0  0  0  0  0  0  0  0  0
  131.6002  130.3217  151.3586 H   0  0  0  0  0  0  0  0  0  0  0  0
  132.4297  129.1107  152.3655 H   0  0  0  0  0  0  0  0  0  0  0  0
  132.0545  129.0159  154.7581 H   0  0  0  0  0  0  0  0  0  0  0  0
  131.4246  130.2570  156.7867 H   0  0  0  0  0  0  0  0  0  0  0  0
  128.8196  131.0904  158.0350 H   0  0  0  0  0  0  0  0  0  0  0  0
  130.4703  136.0984  158.5661 H   0  0  0  0  0  0  0  0  0  0  0  0
  127.4657  136.0210  158.1003 H   0  0  0  0  0  0  0  0  0  0  0  0
  124.9225  135.4617  158.6786 H   0  0  0  0  0  0  0  0  0  0  0  0
  127.3272  135.5376  163.1395 H   0  0  0  0  0  0  0  0  0  0  0  0
  126.6980  133.8936  162.8763 H   0  0  0  0  0  0  0  0  0  0  0  0
  128.3973  134.2669  162.5008 H   0  0  0  0  0  0  0  0  0  0  0  0
  128.9510  137.7547  160.2404 H   0  0  0  0  0  0  0  0  0  0  0  0
  130.6427  139.4909  160.1531 H   0  0  0  0  0  0  0  0  0  0  0  0
  132.9777  140.0582  159.6156 H   0  0  0  0  0  0  0  0  0  0  0  0
  134.6927  138.2922  159.5616 H   0  0  0  0  0  0  0  0  0  0  0  0
  134.0741  135.9600  160.0527 H   0  0  0  0  0  0  0  0  0  0  0  0
  131.7409  135.3941  160.5993 H   0  0  0  0  0  0  0  0  0  0  0  0
  127.8979  138.6684  162.0691 H   0  0  0  0  0  0  0  0  0  0  0  0
  127.5727  138.8214  164.5288 H   0  0  0  0  0  0  0  0  0  0  0  0
  128.9499  137.3688  166.0038 H   0  0  0  0  0  0  0  0  0  0  0  0
  130.5847  135.8308  164.9910 H   0  0  0  0  0  0  0  0  0  0  0  0
  129.4191  133.1669  154.3633 H   0  0  0  0  0  0  0  0  0  0  0  0
  130.0671  131.9186  152.3449 H   0  0  0  0  0  0  0  0  0  0  0  0
  1  2  1  0
  1 38  1  0
  1 39  1  0
  1 40  1  0
  2  3  1  0
  2 41  1  0
  2 42  1  0
  3 37  2  0
  3  4  1  0
  4  5  2  0
  4 43  1  0
  5  6  1  0
  5 44  1  0
  6  7  1  0
  6 36  2  0
  7 34  1  0
  7  8  2  0
  8  9  1  0
  8 45  1  0
  9 10  1  0
  9 11  1  0
 11 12  1  0
 11 34  2  0
 12 13  1  0
 12 46  1  0
 13 14  1  1
 13 15  1  0
 13 21  1  0
 15 19  1  0
 15 16  2  0
 16 17  1  0
 16 47  1  0
 17 18  2  0
 17 48  1  0
 18 19  1  0
 19 20  1  0
 20 49  1  0
 20 50  1  0
 20 51  1  0
 21 22  1  0
 21 28  1  0
 21 52  1  6
 22 27  1  0
 22 23  2  0
 23 24  1  0
 23 53  1  0
 24 25  2  0
 24 54  1  0
 25 26  1  0
 25 55  1  0
 26 27  2  0
 26 56  1  0
 27 57  1  0
 28 33  1  0
 28 29  2  0
 29 30  1  0
 29 58  1  0
 30 31  2  0
 30 59  1  0
 31 32  1  0
 31 60  1  0
 32 33  2  0
 32 61  1  0
 34 35  1  0
 36 37  1  0
 36 62  1  0
 37 63  1  0
M  CHG  1  34   1
M  END
>  <DOCK_score>  (1) 
-60.739338

>  <SMILES>  (1) 
CCc1ccc(-c2c[nH]c(N[C@H](c3ccnn3C)C(c3ccccc3)c3ccccn3)[nH+]2)cc1

$$$$
