Cn1nccc1C[C@@H](Nc1[nH]cc(-c2cccnc2)[nH+]1)c1ccnn1C1CC1
     RDKit          3D

 51 55  0  0  1  0  0  0  0  0999 V2000
  126.3478  135.1036  160.9034 C   0  0  0  0  0  0  0  0  0  0  0  0
  126.7407  135.5328  159.5589 N   0  0  0  0  0  0  0  0  0  0  0  0
  125.9958  135.3537  158.3861 N   0  0  0  0  0  0  0  0  0  0  0  0
  126.6737  135.8626  157.3896 C   0  0  0  0  0  0  0  0  0  0  0  0
  127.8681  136.3859  157.8958 C   0  0  0  0  0  0  0  0  0  0  0  0
  127.8828  136.1728  159.2319 C   0  0  0  0  0  0  0  0  0  0  0  0
  128.9808  136.5728  160.1834 C   0  0  0  0  0  0  0  0  0  0  0  0
  130.0022  135.4385  160.2892 C   0  0  1  0  0  0  0  0  0  0  0  0
  129.5097  134.5396  160.6601 H   0  0  0  0  0  0  0  0  0  0  0  0
  130.5745  135.1716  158.9674 N   0  0  0  0  0  0  0  0  0  0  0  0
  130.4360  133.9197  158.3930 C   0  0  0  0  0  0  0  0  0  0  0  0
  129.7988  132.8561  158.9542 N   0  0  0  0  0  0  0  0  0  0  0  0
  129.3637  132.8391  159.8209 H   0  0  0  0  0  0  0  0  0  0  0  0
  129.8830  131.8121  158.0652 C   0  0  0  0  0  0  0  0  0  0  0  0
  130.5759  132.2649  156.9911 C   0  0  0  0  0  0  0  0  0  0  0  0
  130.9176  131.4808  155.7791 C   0  0  0  0  0  0  0  0  0  0  0  0
  131.0450  132.1111  154.5378 C   0  0  0  0  0  0  0  0  0  0  0  0
  131.3712  131.3361  153.4385 C   0  0  0  0  0  0  0  0  0  0  0  0
  131.5472  129.9736  153.5995 C   0  0  0  0  0  0  0  0  0  0  0  0
  131.4151  129.4058  154.7827 N   0  0  0  0  0  0  0  0  0  0  0  0
  131.1112  130.1032  155.8583 C   0  0  0  0  0  0  0  0  0  0  0  0
  130.9018  133.5616  157.2213 N   0  0  0  0  0  0  0  0  0  0  0  0
  131.4004  134.1322  156.6159 H   0  0  0  0  0  0  0  0  0  0  0  0
  131.1003  135.8384  161.2407 C   0  0  0  0  0  0  0  0  0  0  0  0
  132.2455  136.4803  160.9127 C   0  0  0  0  0  0  0  0  0  0  0  0
  132.9907  136.6560  162.0833 C   0  0  0  0  0  0  0  0  0  0  0  0
  132.3128  136.1467  163.0797 N   0  0  0  0  0  0  0  0  0  0  0  0
  131.1175  135.6211  162.5724 N   0  0  0  0  0  0  0  0  0  0  0  0
  130.0708  134.9536  163.3504 C   0  0  0  0  0  0  0  0  0  0  0  0
  130.4654  134.3642  164.7061 C   0  0  0  0  0  0  0  0  0  0  0  0
  130.1770  133.4370  163.5226 C   0  0  0  0  0  0  0  0  0  0  0  0
  125.7873  135.9017  161.3902 H   0  0  0  0  0  0  0  0  0  0  0  0
  125.7240  134.2126  160.8327 H   0  0  0  0  0  0  0  0  0  0  0  0
  127.2397  134.8775  161.4878 H   0  0  0  0  0  0  0  0  0  0  0  0
  126.3648  135.8760  156.3548 H   0  0  0  0  0  0  0  0  0  0  0  0
  128.6419  136.8736  157.3215 H   0  0  0  0  0  0  0  0  0  0  0  0
  128.5549  136.7713  161.1669 H   0  0  0  0  0  0  0  0  0  0  0  0
  129.4733  137.4717  159.8126 H   0  0  0  0  0  0  0  0  0  0  0  0
  131.0505  135.8722  158.4946 H   0  0  0  0  0  0  0  0  0  0  0  0
  129.4784  130.8197  158.1983 H   0  0  0  0  0  0  0  0  0  0  0  0
  130.8970  133.1765  154.4400 H   0  0  0  0  0  0  0  0  0  0  0  0
  131.4825  131.7895  152.4646 H   0  0  0  0  0  0  0  0  0  0  0  0
  131.7974  129.3652  152.7430 H   0  0  0  0  0  0  0  0  0  0  0  0
  131.0115  129.6026  156.8100 H   0  0  0  0  0  0  0  0  0  0  0  0
  132.5350  136.7969  159.9216 H   0  0  0  0  0  0  0  0  0  0  0  0
  133.9574  137.1326  162.1530 H   0  0  0  0  0  0  0  0  0  0  0  0
  129.0722  135.3810  163.2589 H   0  0  0  0  0  0  0  0  0  0  0  0
  131.5038  134.4728  165.0191 H   0  0  0  0  0  0  0  0  0  0  0  0
  129.7263  134.4034  165.5063 H   0  0  0  0  0  0  0  0  0  0  0  0
  129.2483  132.8668  163.5448 H   0  0  0  0  0  0  0  0  0  0  0  0
  131.0254  132.9358  163.0567 H   0  0  0  0  0  0  0  0  0  0  0  0
  1  2  1  0
  1 32  1  0
  1 33  1  0
  1 34  1  0
  2  6  1  0
  2  3  1  0
  3  4  2  0
  4  5  1  0
  4 35  1  0
  5  6  2  0
  5 36  1  0
  6  7  1  0
  7  8  1  0
  7 37  1  0
  7 38  1  0
  8  9  1  1
  8 10  1  0
  8 24  1  0
 10 39  1  0
 11 10  1  0
 11 22  2  0
 11 12  1  0
 12 13  1  0
 12 14  1  0
 14 15  2  0
 14 40  1  0
 15 16  1  0
 15 22  1  0
 16 21  1  0
 16 17  2  0
 17 18  1  0
 17 41  1  0
 18 19  2  0
 18 42  1  0
 19 20  1  0
 19 43  1  0
 20 21  2  0
 21 44  1  0
 22 23  1  0
 24 28  1  0
 24 25  2  0
 25 26  1  0
 25 45  1  0
 26 27  2  0
 26 46  1  0
 27 28  1  0
 28 29  1  0
 29 31  1  0
 29 30  1  0
 29 47  1  0
 30 31  1  0
 30 48  1  0
 30 49  1  0
 31 50  1  0
 31 51  1  0
M  CHG  1  22   1
M  END
>  <DOCK_score>  (1) 
-56.797295

>  <SMILES>  (1) 
Cn1nccc1C[C@@H](Nc1[nH]cc(-c2cccnc2)[nH+]1)c1ccnn1C1CC1

$$$$
