Cc1ccsc1C[NH2+]Cc1c[nH]nc1OCC1=C(c2c(C)cccc2C)CC1
     RDKit          3D

 56 59  0  0  0  0  0  0  0  0999 V2000
  130.7274  132.2077  154.9803 C   0  0  0  0  0  0  0  0  0  0  0  0
  130.5628  131.6401  156.3664 C   0  0  0  0  0  0  0  0  0  0  0  0
  130.9747  130.3616  156.7013 C   0  0  0  0  0  0  0  0  0  0  0  0
  130.7503  130.0128  157.9690 C   0  0  0  0  0  0  0  0  0  0  0  0
  129.9839  131.3470  158.8211 S   0  0  0  0  0  0  0  0  0  0  0  0
  130.0122  132.3327  157.3646 C   0  0  0  0  0  0  0  0  0  0  0  0
  129.4885  133.7418  157.2590 C   0  0  0  0  0  0  0  0  0  0  0  0
  128.9582  134.1659  158.5616 N   0  0  0  0  0  0  0  0  0  0  0  0
  129.6936  134.1313  159.2516 H   0  0  0  0  0  0  0  0  0  0  0  0
  128.2092  133.5486  158.8371 H   0  0  0  0  0  0  0  0  0  0  0  0
  128.4478  135.5396  158.4587 C   0  0  0  0  0  0  0  0  0  0  0  0
  127.9037  135.9747  159.7951 C   0  0  0  0  0  0  0  0  0  0  0  0
  126.6310  135.8179  160.2260 C   0  0  0  0  0  0  0  0  0  0  0  0
  126.5487  136.3374  161.4688 N   0  0  0  0  0  0  0  0  0  0  0  0
  125.7536  136.3640  162.0239 H   0  0  0  0  0  0  0  0  0  0  0  0
  127.8137  136.8264  161.8188 N   0  0  0  0  0  0  0  0  0  0  0  0
  128.6272  136.6141  160.8128 C   0  0  0  0  0  0  0  0  0  0  0  0
  129.9442  136.9500  160.7662 O   0  0  0  0  0  0  0  0  0  0  0  0
  130.4893  137.5992  161.9167 C   0  0  0  0  0  0  0  0  0  0  0  0
  130.3390  139.0914  161.7698 C   0  0  0  0  0  0  0  0  0  0  0  0
  131.1078  140.0235  161.2509 C   0  0  0  0  0  0  0  0  0  0  0  0
  132.4340  139.9892  160.5991 C   0  0  0  0  0  0  0  0  0  0  0  0
  133.5938  140.1266  161.3626 C   0  0  0  0  0  0  0  0  0  0  0  0
  133.4979  140.3102  162.8552 C   0  0  0  0  0  0  0  0  0  0  0  0
  134.8284  140.0981  160.7474 C   0  0  0  0  0  0  0  0  0  0  0  0
  134.9184  139.9238  159.3779 C   0  0  0  0  0  0  0  0  0  0  0  0
  133.7724  139.7828  158.6157 C   0  0  0  0  0  0  0  0  0  0  0  0
  132.5315  139.8143  159.2182 C   0  0  0  0  0  0  0  0  0  0  0  0
  131.2843  139.6605  158.3865 C   0  0  0  0  0  0  0  0  0  0  0  0
  130.1525  141.1343  161.5675 C   0  0  0  0  0  0  0  0  0  0  0  0
  129.2591  140.0538  162.1624 C   0  0  0  0  0  0  0  0  0  0  0  0
  131.6930  132.7078  154.9047 H   0  0  0  0  0  0  0  0  0  0  0  0
  130.6780  131.4010  154.2490 H   0  0  0  0  0  0  0  0  0  0  0  0
  129.9305  132.9250  154.7843 H   0  0  0  0  0  0  0  0  0  0  0  0
  131.4389  129.6957  155.9890 H   0  0  0  0  0  0  0  0  0  0  0  0
  131.0012  129.0574  158.4057 H   0  0  0  0  0  0  0  0  0  0  0  0
  128.6940  133.7792  156.5137 H   0  0  0  0  0  0  0  0  0  0  0  0
  130.2975  134.4088  156.9615 H   0  0  0  0  0  0  0  0  0  0  0  0
  127.6534  135.5771  157.7134 H   0  0  0  0  0  0  0  0  0  0  0  0
  129.2569  136.2065  158.1612 H   0  0  0  0  0  0  0  0  0  0  0  0
  125.8246  135.3586  159.6739 H   0  0  0  0  0  0  0  0  0  0  0  0
  131.5458  137.3477  162.0094 H   0  0  0  0  0  0  0  0  0  0  0  0
  129.9571  137.2662  162.8079 H   0  0  0  0  0  0  0  0  0  0  0  0
  133.4345  141.3733  163.0872 H   0  0  0  0  0  0  0  0  0  0  0  0
  132.6073  139.8035  163.2272 H   0  0  0  0  0  0  0  0  0  0  0  0
  134.3824  139.8867  163.3310 H   0  0  0  0  0  0  0  0  0  0  0  0
  135.7267  140.2077  161.3368 H   0  0  0  0  0  0  0  0  0  0  0  0
  135.8874  139.8981  158.9017 H   0  0  0  0  0  0  0  0  0  0  0  0
  133.8493  139.6474  157.5472 H   0  0  0  0  0  0  0  0  0  0  0  0
  131.0729  138.6012  158.2410 H   0  0  0  0  0  0  0  0  0  0  0  0
  130.4454  140.1313  158.8990 H   0  0  0  0  0  0  0  0  0  0  0  0
  131.4324  140.1378  157.4177 H   0  0  0  0  0  0  0  0  0  0  0  0
  130.5319  141.8446  162.3021 H   0  0  0  0  0  0  0  0  0  0  0  0
  129.7312  141.6165  160.6853 H   0  0  0  0  0  0  0  0  0  0  0  0
  128.3224  139.9067  161.6246 H   0  0  0  0  0  0  0  0  0  0  0  0
  129.1228  140.1458  163.2399 H   0  0  0  0  0  0  0  0  0  0  0  0
  1  2  1  0
  1 32  1  0
  1 33  1  0
  1 34  1  0
  2  6  2  0
  2  3  1  0
  3  4  2  0
  3 35  1  0
  4  5  1  0
  4 36  1  0
  5  6  1  0
  6  7  1  0
  7  8  1  0
  7 37  1  0
  7 38  1  0
  8  9  1  0
  8 10  1  0
  8 11  1  0
 11 12  1  0
 11 39  1  0
 11 40  1  0
 12 17  1  0
 12 13  2  0
 13 14  1  0
 13 41  1  0
 14 15  1  0
 14 16  1  0
 16 17  2  0
 17 18  1  0
 18 19  1  0
 19 20  1  0
 19 42  1  0
 19 43  1  0
 20 31  1  0
 20 21  2  0
 21 22  1  0
 21 30  1  0
 22 28  1  0
 22 23  2  0
 23 24  1  0
 23 25  1  0
 24 44  1  0
 24 45  1  0
 24 46  1  0
 25 26  2  0
 25 47  1  0
 26 27  1  0
 26 48  1  0
 27 28  2  0
 27 49  1  0
 28 29  1  0
 29 50  1  0
 29 51  1  0
 29 52  1  0
 30 31  1  0
 30 53  1  0
 30 54  1  0
 31 55  1  0
 31 56  1  0
M  CHG  1   8   1
M  END
>  <DOCK_score>  (1) 
-43.992641

>  <SMILES>  (1) 
Cc1ccsc1C[NH2+]Cc1c[nH]nc1OCC1=C(c2c(C)cccc2C)CC1

$$$$
