C1=C(CNc2c(N3CC[NH+](C(c4ccccc4)c4ccccc4)CC3)ccc3c2CCC3)CCOC1
     RDKit          3D

 74 79  0  0  1  0  0  0  0  0999 V2000
  134.1198  135.3038  166.4406 C   0  0  0  0  0  0  0  0  0  0  0  0
  133.4142  136.0528  165.6464 C   0  0  0  0  0  0  0  0  0  0  0  0
  132.8526  135.4457  164.3867 C   0  0  0  0  0  0  0  0  0  0  0  0
  133.9530  134.9496  163.5495 N   0  0  0  0  0  0  0  0  0  0  0  0
  134.4019  135.9430  162.6706 C   0  0  0  0  0  0  0  0  0  0  0  0
  133.8243  136.0691  161.4083 C   0  0  0  0  0  0  0  0  0  0  0  0
  132.7956  135.2038  161.0162 N   0  0  0  0  0  0  0  0  0  0  0  0
  133.2087  134.3787  159.8721 C   0  0  0  0  0  0  0  0  0  0  0  0
  132.0812  133.4081  159.5137 C   0  0  0  0  0  0  0  0  0  0  0  0
  130.8691  134.1673  159.1794 N   0  0  0  0  0  0  0  0  0  0  0  0
  131.0598  134.7791  158.4001 H   0  0  0  0  0  0  0  0  0  0  0  0
  129.7923  133.2358  158.8179 C   0  0  0  0  0  0  0  0  0  0  0  0
  128.5485  134.0145  158.4749 C   0  0  0  0  0  0  0  0  0  0  0  0
  127.3022  133.4596  158.6978 C   0  0  0  0  0  0  0  0  0  0  0  0
  126.1613  134.1759  158.3877 C   0  0  0  0  0  0  0  0  0  0  0  0
  126.2667  135.4428  157.8449 C   0  0  0  0  0  0  0  0  0  0  0  0
  127.5131  135.9956  157.6171 C   0  0  0  0  0  0  0  0  0  0  0  0
  128.6540  135.2814  157.9320 C   0  0  0  0  0  0  0  0  0  0  0  0
  130.2163  132.4160  157.6265 C   0  0  0  0  0  0  0  0  0  0  0  0
  129.9390  132.8608  156.3475 C   0  0  0  0  0  0  0  0  0  0  0  0
  130.3322  132.1112  155.2546 C   0  0  0  0  0  0  0  0  0  0  0  0
  130.9933  130.9115  155.4410 C   0  0  0  0  0  0  0  0  0  0  0  0
  131.2657  130.4641  156.7202 C   0  0  0  0  0  0  0  0  0  0  0  0
  130.8772  131.2163  157.8130 C   0  0  0  0  0  0  0  0  0  0  0  0
  130.4550  134.9674  160.3395 C   0  0  0  0  0  0  0  0  0  0  0  0
  131.5688  135.9510  160.7049 C   0  0  0  0  0  0  0  0  0  0  0  0
  134.2728  137.0543  160.5424 C   0  0  0  0  0  0  0  0  0  0  0  0
  135.2886  137.9058  160.9332 C   0  0  0  0  0  0  0  0  0  0  0  0
  135.8638  137.7825  162.1869 C   0  0  0  0  0  0  0  0  0  0  0  0
  135.4182  136.8056  163.0591 C   0  0  0  0  0  0  0  0  0  0  0  0
  136.2042  136.8757  164.3509 C   0  0  0  0  0  0  0  0  0  0  0  0
  137.4578  137.7122  164.0180 C   0  0  0  0  0  0  0  0  0  0  0  0
  136.9730  138.5813  162.8382 C   0  0  0  0  0  0  0  0  0  0  0  0
  133.1320  137.5005  165.9395 C   0  0  0  0  0  0  0  0  0  0  0  0
  133.4282  137.7949  167.4128 C   0  0  0  0  0  0  0  0  0  0  0  0
  134.7097  137.2409  167.7357 O   0  0  0  0  0  0  0  0  0  0  0  0
  134.7206  135.8119  167.7204 C   0  0  0  0  0  0  0  0  0  0  0  0
  134.2852  134.2724  166.1662 H   0  0  0  0  0  0  0  0  0  0  0  0
  132.1915  134.6186  164.6454 H   0  0  0  0  0  0  0  0  0  0  0  0
  132.2910  136.2018  163.8381 H   0  0  0  0  0  0  0  0  0  0  0  0
  134.7103  134.6001  164.1173 H   0  0  0  0  0  0  0  0  0  0  0  0
  133.4206  135.0215  159.0178 H   0  0  0  0  0  0  0  0  0  0  0  0
  134.1041  133.8152  160.1347 H   0  0  0  0  0  0  0  0  0  0  0  0
  131.8790  132.7563  160.3636 H   0  0  0  0  0  0  0  0  0  0  0  0
  132.3802  132.8049  158.6563 H   0  0  0  0  0  0  0  0  0  0  0  0
  129.5864  132.5742  159.6594 H   0  0  0  0  0  0  0  0  0  0  0  0
  127.2199  132.4680  159.1177 H   0  0  0  0  0  0  0  0  0  0  0  0
  125.1875  133.7439  158.5653 H   0  0  0  0  0  0  0  0  0  0  0  0
  125.3754  136.0007  157.5984 H   0  0  0  0  0  0  0  0  0  0  0  0
  127.5955  136.9853  157.1927 H   0  0  0  0  0  0  0  0  0  0  0  0
  129.6277  135.7131  157.7539 H   0  0  0  0  0  0  0  0  0  0  0  0
  129.4187  133.7960  156.2019 H   0  0  0  0  0  0  0  0  0  0  0  0
  130.1189  132.4606  154.2552 H   0  0  0  0  0  0  0  0  0  0  0  0
  131.2964  130.3237  154.5872 H   0  0  0  0  0  0  0  0  0  0  0  0
  131.7819  129.5267  156.8659 H   0  0  0  0  0  0  0  0  0  0  0  0
  131.0900  130.8666  158.8125 H   0  0  0  0  0  0  0  0  0  0  0  0
  130.2609  134.3076  161.1853 H   0  0  0  0  0  0  0  0  0  0  0  0
  129.5481  135.5202  160.0945 H   0  0  0  0  0  0  0  0  0  0  0  0
  131.2678  136.5345  161.5750 H   0  0  0  0  0  0  0  0  0  0  0  0
  131.7537  136.6198  159.8643 H   0  0  0  0  0  0  0  0  0  0  0  0
  133.8290  137.1561  159.5631 H   0  0  0  0  0  0  0  0  0  0  0  0
  135.6363  138.6722  160.2565 H   0  0  0  0  0  0  0  0  0  0  0  0
  136.4919  135.8761  164.6765 H   0  0  0  0  0  0  0  0  0  0  0  0
  135.6143  137.3693  165.1234 H   0  0  0  0  0  0  0  0  0  0  0  0
  138.2827  137.0688  163.7118 H   0  0  0  0  0  0  0  0  0  0  0  0
  137.7478  138.3349  164.8644 H   0  0  0  0  0  0  0  0  0  0  0  0
  137.7858  138.7462  162.1310 H   0  0  0  0  0  0  0  0  0  0  0  0
  136.5889  139.5339  163.2030 H   0  0  0  0  0  0  0  0  0  0  0  0
  132.0850  137.7186  165.7292 H   0  0  0  0  0  0  0  0  0  0  0  0
  133.7663  138.1246  165.3101 H   0  0  0  0  0  0  0  0  0  0  0  0
  132.6622  137.3381  168.0397 H   0  0  0  0  0  0  0  0  0  0  0  0
  133.4424  138.8725  167.5763 H   0  0  0  0  0  0  0  0  0  0  0  0
  134.1422  135.4371  168.5648 H   0  0  0  0  0  0  0  0  0  0  0  0
  135.7481  135.4574  167.8030 H   0  0  0  0  0  0  0  0  0  0  0  0
  1 37  1  0
  1  2  2  0
  1 38  1  0
  2  3  1  0
  2 34  1  0
  3  4  1  0
  3 39  1  0
  3 40  1  0
  4  5  1  0
  4 41  1  0
  5 30  2  0
  5  6  1  0
  6  7  1  0
  6 27  2  0
  7 26  1  0
  7  8  1  0
  8  9  1  0
  8 42  1  0
  8 43  1  0
  9 10  1  0
  9 44  1  0
  9 45  1  0
 10 11  1  0
 10 12  1  0
 10 25  1  0
 12 13  1  0
 12 19  1  0
 12 46  1  0
 13 18  1  0
 13 14  2  0
 14 15  1  0
 14 47  1  0
 15 16  2  0
 15 48  1  0
 16 17  1  0
 16 49  1  0
 17 18  2  0
 17 50  1  0
 18 51  1  0
 19 24  1  0
 19 20  2  0
 20 21  1  0
 20 52  1  0
 21 22  2  0
 21 53  1  0
 22 23  1  0
 22 54  1  0
 23 24  2  0
 23 55  1  0
 24 56  1  0
 25 26  1  0
 25 57  1  0
 25 58  1  0
 26 59  1  0
 26 60  1  0
 27 28  1  0
 27 61  1  0
 28 29  2  0
 28 62  1  0
 29 33  1  0
 29 30  1  0
 30 31  1  0
 31 32  1  0
 31 63  1  0
 31 64  1  0
 32 33  1  0
 32 65  1  0
 32 66  1  0
 33 67  1  0
 33 68  1  0
 34 35  1  0
 34 69  1  0
 34 70  1  0
 35 36  1  0
 35 71  1  0
 35 72  1  0
 36 37  1  0
 37 73  1  0
 37 74  1  0
M  CHG  1  10   1
M  END
>  <DOCK_score>  (1) 
-56.196568

>  <SMILES>  (1) 
C1=C(CNc2c(N3CC[NH+](C(c4ccccc4)c4ccccc4)CC3)ccc3c2CCC3)CCOC1

$$$$
