c1ccc(-c2ccc(-c3c[nH]c(N[C@H](c4ccccc4)C4CCCC4)[nH+]3)cc2)cc1
     RDKit          3D

 58 62  0  0  1  0  0  0  0  0999 V2000
  130.3575  128.6943  150.1497 C   0  0  0  0  0  0  0  0  0  0  0  0
  130.2463  130.0689  150.2511 C   0  0  0  0  0  0  0  0  0  0  0  0
  130.3204  130.6809  151.4859 C   0  0  0  0  0  0  0  0  0  0  0  0
  130.5083  129.9107  152.6323 C   0  0  0  0  0  0  0  0  0  0  0  0
  130.5895  130.5619  153.9622 C   0  0  0  0  0  0  0  0  0  0  0  0
  129.8946  131.7482  154.2005 C   0  0  0  0  0  0  0  0  0  0  0  0
  129.9704  132.3543  155.4349 C   0  0  0  0  0  0  0  0  0  0  0  0
  130.7413  131.7819  156.4467 C   0  0  0  0  0  0  0  0  0  0  0  0
  130.8233  132.4344  157.7753 C   0  0  0  0  0  0  0  0  0  0  0  0
  130.4465  131.8874  158.9583 C   0  0  0  0  0  0  0  0  0  0  0  0
  130.6916  132.8283  159.9285 N   0  0  0  0  0  0  0  0  0  0  0  0
  130.5247  132.7303  160.8790 H   0  0  0  0  0  0  0  0  0  0  0  0
  131.2114  133.9237  159.3101 C   0  0  0  0  0  0  0  0  0  0  0  0
  131.5949  135.0970  159.9366 N   0  0  0  0  0  0  0  0  0  0  0  0
  130.9149  135.5304  161.1596 C   0  0  2  0  0  0  0  0  0  0  0  0
  131.0338  134.7692  161.9307 H   0  0  0  0  0  0  0  0  0  0  0  0
  129.4489  135.7322  160.8747 C   0  0  0  0  0  0  0  0  0  0  0  0
  128.5156  135.5243  161.8732 C   0  0  0  0  0  0  0  0  0  0  0  0
  127.1713  135.7137  161.6130 C   0  0  0  0  0  0  0  0  0  0  0  0
  126.7595  136.1024  160.3520 C   0  0  0  0  0  0  0  0  0  0  0  0
  127.6921  136.3053  159.3522 C   0  0  0  0  0  0  0  0  0  0  0  0
  129.0370  136.1200  159.6134 C   0  0  0  0  0  0  0  0  0  0  0  0
  131.5262  136.8467  161.6440 C   0  0  0  0  0  0  0  0  0  0  0  0
  131.4285  137.9145  160.5349 C   0  0  0  0  0  0  0  0  0  0  0  0
  132.7491  138.7141  160.6600 C   0  0  0  0  0  0  0  0  0  0  0  0
  133.7845  137.6131  160.9987 C   0  0  0  0  0  0  0  0  0  0  0  0
  133.0242  136.6551  161.9390 C   0  0  0  0  0  0  0  0  0  0  0  0
  131.2887  133.6848  158.0237 N   0  0  0  0  0  0  0  0  0  0  0  0
  131.6250  134.3027  157.3560 H   0  0  0  0  0  0  0  0  0  0  0  0
  131.4398  130.5985  156.2065 C   0  0  0  0  0  0  0  0  0  0  0  0
  131.3601  129.9902  154.9734 C   0  0  0  0  0  0  0  0  0  0  0  0
  130.6255  128.5260  152.5237 C   0  0  0  0  0  0  0  0  0  0  0  0
  130.5450  127.9243  151.2843 C   0  0  0  0  0  0  0  0  0  0  0  0
  130.2996  128.2191  149.1817 H   0  0  0  0  0  0  0  0  0  0  0  0
  130.1011  130.6646  149.3622 H   0  0  0  0  0  0  0  0  0  0  0  0
  130.2334  131.7545  151.5635 H   0  0  0  0  0  0  0  0  0  0  0  0
  129.2978  132.1913  153.4170 H   0  0  0  0  0  0  0  0  0  0  0  0
  129.4325  133.2724  155.6196 H   0  0  0  0  0  0  0  0  0  0  0  0
  130.0367  130.8996  159.1089 H   0  0  0  0  0  0  0  0  0  0  0  0
  132.3138  135.6322  159.5656 H   0  0  0  0  0  0  0  0  0  0  0  0
  128.8373  135.2171  162.8574 H   0  0  0  0  0  0  0  0  0  0  0  0
  126.4426  135.5556  162.3943 H   0  0  0  0  0  0  0  0  0  0  0  0
  125.7089  136.2477  160.1481 H   0  0  0  0  0  0  0  0  0  0  0  0
  127.3703  136.6088  158.3669 H   0  0  0  0  0  0  0  0  0  0  0  0
  129.7657  136.2785  158.8323 H   0  0  0  0  0  0  0  0  0  0  0  0
  131.0101  137.1902  162.5404 H   0  0  0  0  0  0  0  0  0  0  0  0
  131.3602  137.4417  159.5551 H   0  0  0  0  0  0  0  0  0  0  0  0
  130.5709  138.5650  160.7062 H   0  0  0  0  0  0  0  0  0  0  0  0
  132.6836  139.4442  161.4668 H   0  0  0  0  0  0  0  0  0  0  0  0
  132.9971  139.2005  159.7166 H   0  0  0  0  0  0  0  0  0  0  0  0
  134.6463  138.0439  161.5085 H   0  0  0  0  0  0  0  0  0  0  0  0
  134.0988  137.0910  160.0949 H   0  0  0  0  0  0  0  0  0  0  0  0
  133.2352  136.9065  162.9783 H   0  0  0  0  0  0  0  0  0  0  0  0
  133.3157  135.6244  161.7370 H   0  0  0  0  0  0  0  0  0  0  0  0
  132.0403  130.1576  156.9884 H   0  0  0  0  0  0  0  0  0  0  0  0
  131.8978  129.0719  154.7885 H   0  0  0  0  0  0  0  0  0  0  0  0
  130.7753  127.9247  153.4083 H   0  0  0  0  0  0  0  0  0  0  0  0
  130.6321  126.8513  151.1994 H   0  0  0  0  0  0  0  0  0  0  0  0
  1 33  2  0
  1  2  1  0
  1 34  1  0
  2  3  2  0
  2 35  1  0
  3  4  1  0
  3 36  1  0
  4  5  1  0
  4 32  2  0
  5 31  1  0
  5  6  2  0
  6  7  1  0
  6 37  1  0
  7  8  2  0
  7 38  1  0
  8  9  1  0
  8 30  1  0
  9 28  1  0
  9 10  2  0
 10 11  1  0
 10 39  1  0
 11 12  1  0
 11 13  1  0
 13 14  1  0
 13 28  2  0
 14 15  1  0
 14 40  1  0
 15 16  1  1
 15 17  1  0
 15 23  1  0
 17 22  1  0
 17 18  2  0
 18 19  1  0
 18 41  1  0
 19 20  2  0
 19 42  1  0
 20 21  1  0
 20 43  1  0
 21 22  2  0
 21 44  1  0
 22 45  1  0
 23 27  1  0
 23 24  1  0
 23 46  1  0
 24 25  1  0
 24 47  1  0
 24 48  1  0
 25 26  1  0
 25 49  1  0
 25 50  1  0
 26 27  1  0
 26 51  1  0
 26 52  1  0
 27 53  1  0
 27 54  1  0
 28 29  1  0
 30 31  2  0
 30 55  1  0
 31 56  1  0
 32 33  1  0
 32 57  1  0
 33 58  1  0
M  CHG  1  28   1
M  END
>  <DOCK_score>  (1) 
-63.785793

>  <SMILES>  (1) 
c1ccc(-c2ccc(-c3c[nH]c(N[C@H](c4ccccc4)C4CCCC4)[nH+]3)cc2)cc1

$$$$
