Oc1ccc(-c2cccc(C3=CC[N@H+](Cc4ccc(-c5ccccc5)[nH]4)CC3)c2)cc1
     RDKit          3D

 58 62  0  0  1  0  0  0  0  0999 V2000
  136.8861  141.3363  166.6628 O   0  0  0  0  0  0  0  0  0  0  0  0
  136.4761  140.8894  165.4469 C   0  0  0  0  0  0  0  0  0  0  0  0
  135.9108  139.6271  165.3273 C   0  0  0  0  0  0  0  0  0  0  0  0
  135.4942  139.1708  164.0944 C   0  0  0  0  0  0  0  0  0  0  0  0
  135.6407  139.9783  162.9680 C   0  0  0  0  0  0  0  0  0  0  0  0
  135.1935  139.4903  161.6401 C   0  0  0  0  0  0  0  0  0  0  0  0
  135.8362  139.9278  160.4825 C   0  0  0  0  0  0  0  0  0  0  0  0
  135.4221  139.4747  159.2453 C   0  0  0  0  0  0  0  0  0  0  0  0
  134.3701  138.5858  159.1460 C   0  0  0  0  0  0  0  0  0  0  0  0
  133.7187  138.1406  160.2974 C   0  0  0  0  0  0  0  0  0  0  0  0
  132.5922  137.1893  160.1905 C   0  0  0  0  0  0  0  0  0  0  0  0
  131.3713  137.6634  160.0681 C   0  0  0  0  0  0  0  0  0  0  0  0
  130.1603  136.7826  159.9580 C   0  0  0  0  0  0  0  0  0  0  0  0
  130.5511  135.4207  159.5757 N   0  0  2  0  0  0  0  0  0  0  0  0
  130.9142  135.4252  158.6344 H   0  0  0  0  0  0  0  0  0  0  0  0
  129.3817  134.5346  159.6495 C   0  0  0  0  0  0  0  0  0  0  0  0
  129.6315  133.3029  158.8180 C   0  0  0  0  0  0  0  0  0  0  0  0
  129.3644  132.0322  159.1897 C   0  0  0  0  0  0  0  0  0  0  0  0
  129.7439  131.1895  158.1324 C   0  0  0  0  0  0  0  0  0  0  0  0
  130.2357  131.9813  157.1387 C   0  0  0  0  0  0  0  0  0  0  0  0
  130.7536  131.5189  155.8333 C   0  0  0  0  0  0  0  0  0  0  0  0
  130.6406  132.3339  154.7059 C   0  0  0  0  0  0  0  0  0  0  0  0
  131.1307  131.8987  153.4920 C   0  0  0  0  0  0  0  0  0  0  0  0
  131.7235  130.6529  153.3882 C   0  0  0  0  0  0  0  0  0  0  0  0
  131.8334  129.8377  154.5007 C   0  0  0  0  0  0  0  0  0  0  0  0
  131.3522  130.2630  155.7217 C   0  0  0  0  0  0  0  0  0  0  0  0
  130.1599  133.2836  157.5616 N   0  0  0  0  0  0  0  0  0  0  0  0
  130.4380  134.0611  157.0526 H   0  0  0  0  0  0  0  0  0  0  0  0
  131.5900  134.9429  160.5018 C   0  0  0  0  0  0  0  0  0  0  0  0
  132.8831  135.7141  160.2251 C   0  0  0  0  0  0  0  0  0  0  0  0
  134.1292  138.5993  161.5476 C   0  0  0  0  0  0  0  0  0  0  0  0
  136.2133  141.2431  163.0903 C   0  0  0  0  0  0  0  0  0  0  0  0
  136.6237  141.6960  164.3266 C   0  0  0  0  0  0  0  0  0  0  0  0
  136.7430  140.7063  167.3822 H   0  0  0  0  0  0  0  0  0  0  0  0
  135.7976  139.0018  166.2005 H   0  0  0  0  0  0  0  0  0  0  0  0
  135.0553  138.1884  164.0017 H   0  0  0  0  0  0  0  0  0  0  0  0
  136.6601  140.6225  160.5534 H   0  0  0  0  0  0  0  0  0  0  0  0
  135.9232  139.8167  158.3518 H   0  0  0  0  0  0  0  0  0  0  0  0
  134.0505  138.2349  158.1759 H   0  0  0  0  0  0  0  0  0  0  0  0
  131.2338  138.7344  160.0455 H   0  0  0  0  0  0  0  0  0  0  0  0
  129.4861  137.1892  159.2042 H   0  0  0  0  0  0  0  0  0  0  0  0
  129.6467  136.7540  160.9191 H   0  0  0  0  0  0  0  0  0  0  0  0
  129.2104  134.2446  160.6861 H   0  0  0  0  0  0  0  0  0  0  0  0
  128.5047  135.0581  159.2689 H   0  0  0  0  0  0  0  0  0  0  0  0
  128.9366  131.7202  160.1310 H   0  0  0  0  0  0  0  0  0  0  0  0
  129.6615  130.1129  158.1109 H   0  0  0  0  0  0  0  0  0  0  0  0
  130.1741  133.3048  154.7846 H   0  0  0  0  0  0  0  0  0  0  0  0
  131.0477  132.5303  152.6196 H   0  0  0  0  0  0  0  0  0  0  0  0
  132.1018  130.3152  152.4347 H   0  0  0  0  0  0  0  0  0  0  0  0
  132.2972  128.8663  154.4132 H   0  0  0  0  0  0  0  0  0  0  0  0
  131.4383  129.6257  156.5892 H   0  0  0  0  0  0  0  0  0  0  0  0
  131.2725  135.1179  161.5298 H   0  0  0  0  0  0  0  0  0  0  0  0
  131.7563  133.8769  160.3468 H   0  0  0  0  0  0  0  0  0  0  0  0
  133.6063  135.5050  161.0134 H   0  0  0  0  0  0  0  0  0  0  0  0
  133.2933  135.4023  159.2646 H   0  0  0  0  0  0  0  0  0  0  0  0
  133.6260  138.2612  162.4413 H   0  0  0  0  0  0  0  0  0  0  0  0
  136.3322  141.8693  162.2186 H   0  0  0  0  0  0  0  0  0  0  0  0
  137.0638  142.6776  164.4227 H   0  0  0  0  0  0  0  0  0  0  0  0
  1  2  1  0
  1 34  1  0
  2 33  2  0
  2  3  1  0
  3  4  2  0
  3 35  1  0
  4  5  1  0
  4 36  1  0
  5  6  1  0
  5 32  2  0
  6 31  1  0
  6  7  2  0
  7  8  1  0
  7 37  1  0
  8  9  2  0
  8 38  1  0
  9 10  1  0
  9 39  1  0
 10 11  1  0
 10 31  2  0
 11 30  1  0
 11 12  2  0
 12 13  1  0
 12 40  1  0
 13 14  1  0
 13 41  1  0
 13 42  1  0
 14 15  1  6
 14 16  1  0
 14 29  1  0
 16 17  1  0
 16 43  1  0
 16 44  1  0
 17 27  1  0
 17 18  2  0
 18 19  1  0
 18 45  1  0
 19 20  2  0
 19 46  1  0
 20 21  1  0
 20 27  1  0
 21 26  1  0
 21 22  2  0
 22 23  1  0
 22 47  1  0
 23 24  2  0
 23 48  1  0
 24 25  1  0
 24 49  1  0
 25 26  2  0
 25 50  1  0
 26 51  1  0
 27 28  1  0
 29 30  1  0
 29 52  1  0
 29 53  1  0
 30 54  1  0
 30 55  1  0
 31 56  1  0
 32 33  1  0
 32 57  1  0
 33 58  1  0
M  CHG  1  14   1
M  END
>  <DOCK_score>  (1) 
-59.795177

>  <SMILES>  (1) 
Oc1ccc(-c2cccc(C3=CC[N@H+](Cc4ccc(-c5ccccc5)[nH]4)CC3)c2)cc1

$$$$
