Cc1ccc(NCc2ccccc2F)cc1C[NH+]=C(NCc1cccs1)N[C@H]1C[C@@H](O)C1
     RDKit          3D

 62 65  0  0  1  0  0  0  0  0999 V2000
  130.8728  138.7755  159.2804 C   0  0  0  0  0  0  0  0  0  0  0  0
  132.0097  138.3689  160.1823 C   0  0  0  0  0  0  0  0  0  0  0  0
  133.1692  139.1226  160.2133 C   0  0  0  0  0  0  0  0  0  0  0  0
  134.2151  138.7494  161.0340 C   0  0  0  0  0  0  0  0  0  0  0  0
  134.0997  137.6189  161.8333 C   0  0  0  0  0  0  0  0  0  0  0  0
  135.1558  137.2384  162.6644 N   0  0  0  0  0  0  0  0  0  0  0  0
  134.9089  136.3489  163.8019 C   0  0  0  0  0  0  0  0  0  0  0  0
  135.8955  136.6521  164.9000 C   0  0  0  0  0  0  0  0  0  0  0  0
  136.1533  137.9628  165.2552 C   0  0  0  0  0  0  0  0  0  0  0  0
  137.0578  138.2411  166.2627 C   0  0  0  0  0  0  0  0  0  0  0  0
  137.7059  137.2092  166.9161 C   0  0  0  0  0  0  0  0  0  0  0  0
  137.4499  135.8981  166.5624 C   0  0  0  0  0  0  0  0  0  0  0  0
  136.5393  135.6178  165.5574 C   0  0  0  0  0  0  0  0  0  0  0  0
  136.2839  134.3363  165.2148 F   0  0  0  0  0  0  0  0  0  0  0  0
  132.9318  136.8678  161.8040 C   0  0  0  0  0  0  0  0  0  0  0  0
  131.8893  137.2466  160.9807 C   0  0  0  0  0  0  0  0  0  0  0  0
  130.6218  136.4321  160.9481 C   0  0  0  0  0  0  0  0  0  0  0  0
  130.7366  135.3908  159.9240 N   0  0  0  0  0  0  0  0  0  0  0  0
  131.5473  135.3166  159.3965 H   0  0  0  0  0  0  0  0  0  0  0  0
  129.7494  134.5643  159.7215 C   0  0  0  0  0  0  0  0  0  0  0  0
  129.8571  133.5871  158.7604 N   0  0  0  0  0  0  0  0  0  0  0  0
  131.0816  133.4748  157.9639 C   0  0  0  0  0  0  0  0  0  0  0  0
  130.9444  132.3331  156.9899 C   0  0  0  0  0  0  0  0  0  0  0  0
  131.2987  131.0700  157.2311 C   0  0  0  0  0  0  0  0  0  0  0  0
  131.0758  130.1917  156.1846 C   0  0  0  0  0  0  0  0  0  0  0  0
  130.5487  130.7434  155.0904 C   0  0  0  0  0  0  0  0  0  0  0  0
  130.2997  132.4638  155.3587 S   0  0  0  0  0  0  0  0  0  0  0  0
  128.6002  134.6697  160.4688 N   0  0  0  0  0  0  0  0  0  0  0  0
  127.4906  133.7407  160.2412 C   0  0  1  0  0  0  0  0  0  0  0  0
  127.8221  132.7626  159.8924 H   0  0  0  0  0  0  0  0  0  0  0  0
  126.4946  133.6723  161.4108 C   0  0  0  0  0  0  0  0  0  0  0  0
  125.3787  133.6140  160.3542 C   0  0  1  0  0  0  0  0  0  0  0  0
  125.1308  132.6013  160.0365 H   0  0  0  0  0  0  0  0  0  0  0  0
  124.2259  134.3862  160.6960 O   0  0  0  0  0  0  0  0  0  0  0  0
  126.3484  134.3389  159.4032 C   0  0  0  0  0  0  0  0  0  0  0  0
  130.2073  139.4517  159.8169 H   0  0  0  0  0  0  0  0  0  0  0  0
  131.2703  139.2798  158.3995 H   0  0  0  0  0  0  0  0  0  0  0  0
  130.3186  137.8889  158.9723 H   0  0  0  0  0  0  0  0  0  0  0  0
  133.2582  140.0011  159.5916 H   0  0  0  0  0  0  0  0  0  0  0  0
  135.1217  139.3359  161.0548 H   0  0  0  0  0  0  0  0  0  0  0  0
  136.0526  137.5632  162.4884 H   0  0  0  0  0  0  0  0  0  0  0  0
  133.8952  136.5041  164.1712 H   0  0  0  0  0  0  0  0  0  0  0  0
  135.0253  135.3127  163.4848 H   0  0  0  0  0  0  0  0  0  0  0  0
  135.6483  138.7697  164.7451 H   0  0  0  0  0  0  0  0  0  0  0  0
  137.2588  139.2655  166.5396 H   0  0  0  0  0  0  0  0  0  0  0  0
  138.4125  137.4278  167.7029 H   0  0  0  0  0  0  0  0  0  0  0  0
  137.9565  135.0923  167.0727 H   0  0  0  0  0  0  0  0  0  0  0  0
  132.8386  135.9887  162.4243 H   0  0  0  0  0  0  0  0  0  0  0  0
  129.7786  137.0816  160.7129 H   0  0  0  0  0  0  0  0  0  0  0  0
  130.4628  135.9684  161.9215 H   0  0  0  0  0  0  0  0  0  0  0  0
  129.1223  132.9720  158.6097 H   0  0  0  0  0  0  0  0  0  0  0  0
  131.2447  134.4026  157.4156 H   0  0  0  0  0  0  0  0  0  0  0  0
  131.9287  133.2892  158.6242 H   0  0  0  0  0  0  0  0  0  0  0  0
  131.7248  130.7557  158.1725 H   0  0  0  0  0  0  0  0  0  0  0  0
  131.3140  129.1402  156.2479 H   0  0  0  0  0  0  0  0  0  0  0  0
  130.3109  130.2145  154.1792 H   0  0  0  0  0  0  0  0  0  0  0  0
  128.5227  135.3617  161.1440 H   0  0  0  0  0  0  0  0  0  0  0  0
  126.5809  132.7628  162.0053 H   0  0  0  0  0  0  0  0  0  0  0  0
  126.4729  134.5764  162.0193 H   0  0  0  0  0  0  0  0  0  0  0  0
  124.4050  135.3291  160.8145 H   0  0  0  0  0  0  0  0  0  0  0  0
  126.2868  135.4255  159.4617 H   0  0  0  0  0  0  0  0  0  0  0  0
  126.3169  133.9666  158.3792 H   0  0  0  0  0  0  0  0  0  0  0  0
  1  2  1  0
  1 36  1  0
  1 37  1  0
  1 38  1  0
  2 16  2  0
  2  3  1  0
  3  4  2  0
  3 39  1  0
  4  5  1  0
  4 40  1  0
  5  6  1  0
  5 15  2  0
  6  7  1  0
  6 41  1  0
  7  8  1  0
  7 42  1  0
  7 43  1  0
  8 13  1  0
  8  9  2  0
  9 10  1  0
  9 44  1  0
 10 11  2  0
 10 45  1  0
 11 12  1  0
 11 46  1  0
 12 13  2  0
 12 47  1  0
 13 14  1  0
 15 16  1  0
 15 48  1  0
 16 17  1  0
 17 18  1  0
 17 49  1  0
 17 50  1  0
 18 19  1  0
 20 18  2  0
 20 21  1  0
 20 28  1  0
 21 22  1  0
 21 51  1  0
 22 23  1  0
 22 52  1  0
 22 53  1  0
 23 27  1  0
 23 24  2  0
 24 25  1  0
 24 54  1  0
 25 26  2  0
 25 55  1  0
 26 27  1  0
 26 56  1  0
 28 29  1  0
 28 57  1  0
 29 30  1  6
 29 35  1  0
 29 31  1  0
 31 32  1  0
 31 58  1  0
 31 59  1  0
 32 33  1  6
 32 34  1  0
 32 35  1  0
 34 60  1  0
 35 61  1  0
 35 62  1  0
M  CHG  1  18   1
M  END
>  <DOCK_score>  (1) 
-48.729763

>  <SMILES>  (1) 
Cc1ccc(NCc2ccccc2F)cc1C[NH+]=C(NCc1cccs1)N[C@H]1C[C@@H](O)C1

$$$$
