O=C1CCC([NH+]=C(N[C@H]2Cc3ccc(Cl)cc3C2)N[C@@H]2C=C[C@@H](O)[C@H]2O)CN1
     RDKit          3D

 54 57  0  0  1  0  0  0  0  0999 V2000
  125.0932  138.0783  164.2708 O   0  0  0  0  0  0  0  0  0  0  0  0
  126.1803  137.8110  163.8043 C   0  0  0  0  0  0  0  0  0  0  0  0
  126.3976  136.4308  163.2539 C   0  0  0  0  0  0  0  0  0  0  0  0
  127.8970  136.1517  163.1244 C   0  0  0  0  0  0  0  0  0  0  0  0
  128.5510  137.3394  162.4081 C   0  0  2  0  0  0  0  0  0  0  0  0
  129.9518  137.0261  162.1152 N   0  0  0  0  0  0  0  0  0  0  0  0
  130.6427  137.2447  162.7599 H   0  0  0  0  0  0  0  0  0  0  0  0
  130.2697  136.4536  160.9883 C   0  0  0  0  0  0  0  0  0  0  0  0
  131.4974  136.6933  160.4176 N   0  0  0  0  0  0  0  0  0  0  0  0
  132.4483  137.5921  161.0764 C   0  0  1  0  0  0  0  0  0  0  0  0
  131.9231  138.3589  161.6462 H   0  0  0  0  0  0  0  0  0  0  0  0
  133.4145  136.8002  161.9828 C   0  0  0  0  0  0  0  0  0  0  0  0
  134.7412  137.5205  161.8725 C   0  0  0  0  0  0  0  0  0  0  0  0
  135.8636  137.4625  162.6821 C   0  0  0  0  0  0  0  0  0  0  0  0
  136.9791  138.2177  162.3790 C   0  0  0  0  0  0  0  0  0  0  0  0
  136.9730  139.0432  161.2686 C   0  0  0  0  0  0  0  0  0  0  0  0
  138.3714  139.9989  160.8882 Cl  0  0  0  0  0  0  0  0  0  0  0  0
  135.8538  139.1015  160.4594 C   0  0  0  0  0  0  0  0  0  0  0  0
  134.7365  138.3407  160.7598 C   0  0  0  0  0  0  0  0  0  0  0  0
  133.4063  138.2276  160.0465 C   0  0  0  0  0  0  0  0  0  0  0  0
  129.3774  135.6098  160.3701 N   0  0  0  0  0  0  0  0  0  0  0  0
  129.7347  134.9662  159.1034 C   0  0  2  0  0  0  0  0  0  0  0  0
  130.4185  135.5983  158.5369 H   0  0  0  0  0  0  0  0  0  0  0  0
  128.4933  134.6746  158.2927 C   0  0  0  0  0  0  0  0  0  0  0  0
  128.1697  133.4098  158.3718 C   0  0  0  0  0  0  0  0  0  0  0  0
  129.1415  132.6519  159.2460 C   0  0  1  0  0  0  0  0  0  0  0  0
  128.7079  132.4695  160.2293 H   0  0  0  0  0  0  0  0  0  0  0  0
  129.5082  131.4167  158.6280 O   0  0  0  0  0  0  0  0  0  0  0  0
  130.3717  133.5815  159.3637 C   0  0  1  0  0  0  0  0  0  0  0  0
  130.8056  133.5318  160.3624 H   0  0  0  0  0  0  0  0  0  0  0  0
  131.3478  133.2705  158.3674 O   0  0  0  0  0  0  0  0  0  0  0  0
  128.4793  138.5629  163.3227 C   0  0  0  0  0  0  0  0  0  0  0  0
  127.1187  138.7584  163.8072 N   0  0  0  0  0  0  0  0  0  0  0  0
  125.9291  136.3543  162.2726 H   0  0  0  0  0  0  0  0  0  0  0  0
  125.9499  135.6993  163.9267 H   0  0  0  0  0  0  0  0  0  0  0  0
  128.0524  135.2423  162.5439 H   0  0  0  0  0  0  0  0  0  0  0  0
  128.3355  136.0344  164.1154 H   0  0  0  0  0  0  0  0  0  0  0  0
  128.0198  137.5432  161.4783 H   0  0  0  0  0  0  0  0  0  0  0  0
  131.7339  136.2671  159.5790 H   0  0  0  0  0  0  0  0  0  0  0  0
  133.5106  135.7741  161.6277 H   0  0  0  0  0  0  0  0  0  0  0  0
  133.0617  136.8129  163.0140 H   0  0  0  0  0  0  0  0  0  0  0  0
  135.8674  136.8218  163.5515 H   0  0  0  0  0  0  0  0  0  0  0  0
  137.8540  138.1672  163.0103 H   0  0  0  0  0  0  0  0  0  0  0  0
  135.8507  139.7428  159.5905 H   0  0  0  0  0  0  0  0  0  0  0  0
  133.0480  139.2151  159.7557 H   0  0  0  0  0  0  0  0  0  0  0  0
  133.5001  137.5855  159.1707 H   0  0  0  0  0  0  0  0  0  0  0  0
  128.5112  135.4406  160.7727 H   0  0  0  0  0  0  0  0  0  0  0  0
  127.9471  135.4132  157.7248 H   0  0  0  0  0  0  0  0  0  0  0  0
  127.3190  132.9655  157.8764 H   0  0  0  0  0  0  0  0  0  0  0  0
  129.8676  131.5148  157.7356 H   0  0  0  0  0  0  0  0  0  0  0  0
  132.0794  133.9013  158.3232 H   0  0  0  0  0  0  0  0  0  0  0  0
  129.1468  138.4172  164.1721 H   0  0  0  0  0  0  0  0  0  0  0  0
  128.7948  139.4463  162.7680 H   0  0  0  0  0  0  0  0  0  0  0  0
  126.8808  139.6328  164.1534 H   0  0  0  0  0  0  0  0  0  0  0  0
  1  2  2  0
  2 33  1  0
  2  3  1  0
  3  4  1  0
  3 34  1  0
  3 35  1  0
  4  5  1  0
  4 36  1  0
  4 37  1  0
  5  6  1  0
  5 32  1  0
  5 38  1  6
  6  7  1  0
  8  6  2  0
  8  9  1  0
  8 21  1  0
  9 10  1  0
  9 39  1  0
 10 11  1  1
 10 20  1  0
 10 12  1  0
 12 13  1  0
 12 40  1  0
 12 41  1  0
 13 19  2  0
 13 14  1  0
 14 15  2  0
 14 42  1  0
 15 16  1  0
 15 43  1  0
 16 17  1  0
 16 18  2  0
 18 19  1  0
 18 44  1  0
 19 20  1  0
 20 45  1  0
 20 46  1  0
 21 22  1  0
 21 47  1  0
 22 23  1  6
 22 29  1  0
 22 24  1  0
 24 25  2  0
 24 48  1  0
 25 26  1  0
 25 49  1  0
 26 27  1  1
 26 28  1  0
 26 29  1  0
 28 50  1  0
 29 30  1  1
 29 31  1  0
 31 51  1  0
 32 33  1  0
 32 52  1  0
 32 53  1  0
 33 54  1  0
M  CHG  1   6   1
M  END
>  <DOCK_score>  (1) 
-44.927483

>  <SMILES>  (1) 
O=C1CCC([NH+]=C(N[C@H]2Cc3ccc(Cl)cc3C2)N[C@@H]2C=C[C@@H](O)[C@H]2O)CN1

$$$$
