Brc1ccc(-c2c[nH]c(Nc3cnc(Nc4ccccc4)nc3)[nH+]2)cc1
     RDKit          3D

 42 45  0  0  1  0  0  0  0  0999 V2000
  131.2041  129.1977  151.7149 Br  0  0  0  0  0  0  0  0  0  0  0  0
  130.8740  130.1996  153.2844 C   0  0  0  0  0  0  0  0  0  0  0  0
  130.0004  131.2731  153.2457 C   0  0  0  0  0  0  0  0  0  0  0  0
  129.7561  132.0082  154.3878 C   0  0  0  0  0  0  0  0  0  0  0  0
  130.3905  131.6681  155.5814 C   0  0  0  0  0  0  0  0  0  0  0  0
  130.1321  132.4550  156.8120 C   0  0  0  0  0  0  0  0  0  0  0  0
  129.6157  131.9767  157.9713 C   0  0  0  0  0  0  0  0  0  0  0  0
  129.5492  133.0349  158.8446 N   0  0  0  0  0  0  0  0  0  0  0  0
  129.2247  133.0063  159.7583 H   0  0  0  0  0  0  0  0  0  0  0  0
  130.0201  134.1317  158.1900 C   0  0  0  0  0  0  0  0  0  0  0  0
  130.1186  135.4072  158.7205 N   0  0  0  0  0  0  0  0  0  0  0  0
  129.2139  135.8287  159.7039 C   0  0  0  0  0  0  0  0  0  0  0  0
  129.6609  136.2200  160.9628 C   0  0  0  0  0  0  0  0  0  0  0  0
  128.7777  136.6125  161.8658 N   0  0  0  0  0  0  0  0  0  0  0  0
  127.4835  136.6353  161.5838 C   0  0  0  0  0  0  0  0  0  0  0  0
  126.5873  137.0531  162.5575 N   0  0  0  0  0  0  0  0  0  0  0  0
  127.0549  137.4431  163.8165 C   0  0  0  0  0  0  0  0  0  0  0  0
  126.6322  136.7689  164.9550 C   0  0  0  0  0  0  0  0  0  0  0  0
  127.0951  137.1567  166.1971 C   0  0  0  0  0  0  0  0  0  0  0  0
  127.9787  138.2147  166.3080 C   0  0  0  0  0  0  0  0  0  0  0  0
  128.3974  138.8914  165.1770 C   0  0  0  0  0  0  0  0  0  0  0  0
  127.9425  138.5055  163.9315 C   0  0  0  0  0  0  0  0  0  0  0  0
  127.0220  136.2653  160.3993 N   0  0  0  0  0  0  0  0  0  0  0  0
  127.8466  135.8666  159.4452 C   0  0  0  0  0  0  0  0  0  0  0  0
  130.3702  133.7801  156.9767 N   0  0  0  0  0  0  0  0  0  0  0  0
  130.7406  134.3729  156.3041 H   0  0  0  0  0  0  0  0  0  0  0  0
  131.2728  130.5896  155.6133 C   0  0  0  0  0  0  0  0  0  0  0  0
  131.5059  129.8579  154.4669 C   0  0  0  0  0  0  0  0  0  0  0  0
  129.5093  131.5358  152.3203 H   0  0  0  0  0  0  0  0  0  0  0  0
  129.0745  132.8453  154.3568 H   0  0  0  0  0  0  0  0  0  0  0  0
  129.3170  130.9583  158.1707 H   0  0  0  0  0  0  0  0  0  0  0  0
  130.8139  136.0087  158.4112 H   0  0  0  0  0  0  0  0  0  0  0  0
  130.7146  136.2032  161.1991 H   0  0  0  0  0  0  0  0  0  0  0  0
  125.6373  137.0754  162.3651 H   0  0  0  0  0  0  0  0  0  0  0  0
  125.9419  135.9428  164.8691 H   0  0  0  0  0  0  0  0  0  0  0  0
  126.7670  136.6328  167.0827 H   0  0  0  0  0  0  0  0  0  0  0  0
  128.3389  138.5161  167.2804 H   0  0  0  0  0  0  0  0  0  0  0  0
  129.0841  139.7200  165.2674 H   0  0  0  0  0  0  0  0  0  0  0  0
  128.2731  139.0317  163.0481 H   0  0  0  0  0  0  0  0  0  0  0  0
  127.4639  135.5698  158.4798 H   0  0  0  0  0  0  0  0  0  0  0  0
  131.7700  130.3246  156.5347 H   0  0  0  0  0  0  0  0  0  0  0  0
  132.1866  129.0197  154.4914 H   0  0  0  0  0  0  0  0  0  0  0  0
  1  2  1  0
  2 28  2  0
  2  3  1  0
  3  4  2  0
  3 29  1  0
  4  5  1  0
  4 30  1  0
  5  6  1  0
  5 27  2  0
  6 25  1  0
  6  7  2  0
  7  8  1  0
  7 31  1  0
  8  9  1  0
  8 10  1  0
 10 11  1  0
 10 25  2  0
 11 12  1  0
 11 32  1  0
 12 24  1  0
 12 13  2  0
 13 14  1  0
 13 33  1  0
 14 15  2  0
 15 16  1  0
 15 23  1  0
 16 17  1  0
 16 34  1  0
 17 22  1  0
 17 18  2  0
 18 19  1  0
 18 35  1  0
 19 20  2  0
 19 36  1  0
 20 21  1  0
 20 37  1  0
 21 22  2  0
 21 38  1  0
 22 39  1  0
 23 24  2  0
 24 40  1  0
 25 26  1  0
 27 28  1  0
 27 41  1  0
 28 42  1  0
M  CHG  1  25   1
M  END
>  <DOCK_score>  (1) 
-51.69231

>  <SMILES>  (1) 
Brc1ccc(-c2c[nH]c(Nc3cnc(Nc4ccccc4)nc3)[nH+]2)cc1

$$$$
