Cc1cccc(C2=CC[N@@H+](CC3=Cc4cc(Br)ccc4OC3)CC2)c1
     RDKit          3D

 48 51  0  0  1  0  0  0  0  0999 V2000
  135.7369  141.2823  163.2438 C   0  0  0  0  0  0  0  0  0  0  0  0
  135.5897  140.5022  161.9630 C   0  0  0  0  0  0  0  0  0  0  0  0
  136.4745  140.7134  160.9199 C   0  0  0  0  0  0  0  0  0  0  0  0
  136.3464  140.0010  159.7416 C   0  0  0  0  0  0  0  0  0  0  0  0
  135.3374  139.0703  159.6006 C   0  0  0  0  0  0  0  0  0  0  0  0
  134.4389  138.8562  160.6462 C   0  0  0  0  0  0  0  0  0  0  0  0
  133.3526  137.8644  160.5000 C   0  0  0  0  0  0  0  0  0  0  0  0
  133.5768  136.6201  160.8633 C   0  0  0  0  0  0  0  0  0  0  0  0
  132.5389  135.5399  160.7611 C   0  0  0  0  0  0  0  0  0  0  0  0
  131.4691  135.9434  159.8412 N   0  0  1  0  0  0  0  0  0  0  0  0
  131.8324  135.9964  158.9012 H   0  0  0  0  0  0  0  0  0  0  0  0
  130.3796  134.9594  159.8924 C   0  0  0  0  0  0  0  0  0  0  0  0
  130.7420  133.7642  159.0492 C   0  0  0  0  0  0  0  0  0  0  0  0
  130.4093  133.7358  157.7622 C   0  0  0  0  0  0  0  0  0  0  0  0
  130.7488  132.5302  156.9773 C   0  0  0  0  0  0  0  0  0  0  0  0
  130.7092  132.5351  155.5872 C   0  0  0  0  0  0  0  0  0  0  0  0
  131.0553  131.3921  154.8914 C   0  0  0  0  0  0  0  0  0  0  0  0
  131.0078  131.3900  153.0010 Br  0  0  0  0  0  0  0  0  0  0  0  0
  131.4371  130.2483  155.5728 C   0  0  0  0  0  0  0  0  0  0  0  0
  131.4712  130.2330  156.9555 C   0  0  0  0  0  0  0  0  0  0  0  0
  131.1267  131.3690  157.6645 C   0  0  0  0  0  0  0  0  0  0  0  0
  131.1315  131.3811  159.0224 O   0  0  0  0  0  0  0  0  0  0  0  0
  131.4794  132.6058  159.6671 C   0  0  0  0  0  0  0  0  0  0  0  0
  130.9606  137.2630  160.2476 C   0  0  0  0  0  0  0  0  0  0  0  0
  132.0305  138.3142  159.9417 C   0  0  0  0  0  0  0  0  0  0  0  0
  134.5735  139.5783  161.8328 C   0  0  0  0  0  0  0  0  0  0  0  0
  136.3894  140.7390  163.9273 H   0  0  0  0  0  0  0  0  0  0  0  0
  136.1705  142.2587  163.0267 H   0  0  0  0  0  0  0  0  0  0  0  0
  134.7575  141.4139  163.7038 H   0  0  0  0  0  0  0  0  0  0  0  0
  137.2687  141.4375  161.0265 H   0  0  0  0  0  0  0  0  0  0  0  0
  137.0402  140.1706  158.9315 H   0  0  0  0  0  0  0  0  0  0  0  0
  135.2411  138.5114  158.6814 H   0  0  0  0  0  0  0  0  0  0  0  0
  134.5509  136.3641  161.2530 H   0  0  0  0  0  0  0  0  0  0  0  0
  132.1147  135.3529  161.7476 H   0  0  0  0  0  0  0  0  0  0  0  0
  133.0051  134.6258  160.3932 H   0  0  0  0  0  0  0  0  0  0  0  0
  129.4643  135.4105  159.5089 H   0  0  0  0  0  0  0  0  0  0  0  0
  130.2241  134.6429  160.9238 H   0  0  0  0  0  0  0  0  0  0  0  0
  129.9036  134.5721  157.3023 H   0  0  0  0  0  0  0  0  0  0  0  0
  130.4096  133.4259  155.0550 H   0  0  0  0  0  0  0  0  0  0  0  0
  131.7100  129.3615  155.0201 H   0  0  0  0  0  0  0  0  0  0  0  0
  131.7705  129.3374  157.4797 H   0  0  0  0  0  0  0  0  0  0  0  0
  131.2227  132.5400  160.7244 H   0  0  0  0  0  0  0  0  0  0  0  0
  132.5524  132.7707  159.5683 H   0  0  0  0  0  0  0  0  0  0  0  0
  130.0522  137.4926  159.6904 H   0  0  0  0  0  0  0  0  0  0  0  0
  130.7462  137.2592  161.3163 H   0  0  0  0  0  0  0  0  0  0  0  0
  132.1164  138.4414  158.8626 H   0  0  0  0  0  0  0  0  0  0  0  0
  131.7479  139.2632  160.3975 H   0  0  0  0  0  0  0  0  0  0  0  0
  133.8834  139.4146  162.6472 H   0  0  0  0  0  0  0  0  0  0  0  0
  1  2  1  0
  1 27  1  0
  1 28  1  0
  1 29  1  0
  2 26  2  0
  2  3  1  0
  3  4  2  0
  3 30  1  0
  4  5  1  0
  4 31  1  0
  5  6  2  0
  5 32  1  0
  6  7  1  0
  6 26  1  0
  7 25  1  0
  7  8  2  0
  8  9  1  0
  8 33  1  0
  9 10  1  0
  9 34  1  0
  9 35  1  0
 10 11  1  6
 10 12  1  0
 10 24  1  0
 12 13  1  0
 12 36  1  0
 12 37  1  0
 13 23  1  0
 13 14  2  0
 14 15  1  0
 14 38  1  0
 15 21  2  0
 15 16  1  0
 16 17  2  0
 16 39  1  0
 17 18  1  0
 17 19  1  0
 19 20  2  0
 19 40  1  0
 20 21  1  0
 20 41  1  0
 21 22  1  0
 22 23  1  0
 23 42  1  0
 23 43  1  0
 24 25  1  0
 24 44  1  0
 24 45  1  0
 25 46  1  0
 25 47  1  0
 26 48  1  0
M  CHG  1  10   1
M  END
>  <DOCK_score>  (1) 
-56.132511

>  <SMILES>  (1) 
Cc1cccc(C2=CC[N@@H+](CC3=Cc4cc(Br)ccc4OC3)CC2)c1

$$$$
