O=C1CC[C@H](NC(NC2CC2)=[NH+]Cc2ccccc2)CN1
     RDKit          3D

 44 46  0  0  1  0  0  0  0  0999 V2000
  123.6633  133.6641  161.6016 O   0  0  0  0  0  0  0  0  0  0  0  0
  124.8314  133.8866  161.3634 C   0  0  0  0  0  0  0  0  0  0  0  0
  125.6859  132.7518  160.8760 C   0  0  0  0  0  0  0  0  0  0  0  0
  127.1658  133.1021  161.0503 C   0  0  0  0  0  0  0  0  0  0  0  0
  127.4039  134.5021  160.4717 C   0  0  2  0  0  0  0  0  0  0  0  0
  127.0178  134.5474  159.4534 H   0  0  0  0  0  0  0  0  0  0  0  0
  128.8396  134.7940  160.4664 N   0  0  0  0  0  0  0  0  0  0  0  0
  129.6040  134.4645  159.3723 C   0  0  0  0  0  0  0  0  0  0  0  0
  130.9513  134.7384  159.3672 N   0  0  0  0  0  0  0  0  0  0  0  0
  131.5722  135.3816  160.5277 C   0  0  0  0  0  0  0  0  0  0  0  0
  133.0835  135.2179  160.7015 C   0  0  0  0  0  0  0  0  0  0  0  0
  132.1216  134.4729  161.6292 C   0  0  0  0  0  0  0  0  0  0  0  0
  129.0515  133.8922  158.3398 N   0  0  0  0  0  0  0  0  0  0  0  0
  128.2781  133.3189  158.4590 H   0  0  0  0  0  0  0  0  0  0  0  0
  129.5986  134.1146  156.9990 C   0  0  0  0  0  0  0  0  0  0  0  0
  130.0271  132.7969  156.4064 C   0  0  0  0  0  0  0  0  0  0  0  0
  129.9880  132.6096  155.0373 C   0  0  0  0  0  0  0  0  0  0  0  0
  130.3768  131.3994  154.4940 C   0  0  0  0  0  0  0  0  0  0  0  0
  130.8138  130.3799  155.3189 C   0  0  0  0  0  0  0  0  0  0  0  0
  130.8565  130.5686  156.6877 C   0  0  0  0  0  0  0  0  0  0  0  0
  130.4631  131.7771  157.2313 C   0  0  0  0  0  0  0  0  0  0  0  0
  126.6758  135.5237  161.3461 C   0  0  0  0  0  0  0  0  0  0  0  0
  125.2883  135.1258  161.5478 N   0  0  0  0  0  0  0  0  0  0  0  0
  125.4788  132.5696  159.8215 H   0  0  0  0  0  0  0  0  0  0  0  0
  125.4561  131.8545  161.4504 H   0  0  0  0  0  0  0  0  0  0  0  0
  127.7800  132.3757  160.5182 H   0  0  0  0  0  0  0  0  0  0  0  0
  127.4229  133.0943  162.1095 H   0  0  0  0  0  0  0  0  0  0  0  0
  129.2507  135.2199  161.2349 H   0  0  0  0  0  0  0  0  0  0  0  0
  131.4906  134.5058  158.5953 H   0  0  0  0  0  0  0  0  0  0  0  0
  131.1303  136.3303  160.8318 H   0  0  0  0  0  0  0  0  0  0  0  0
  133.6157  134.6315  159.9523 H   0  0  0  0  0  0  0  0  0  0  0  0
  133.6362  136.0591  161.1199 H   0  0  0  0  0  0  0  0  0  0  0  0
  132.0415  134.8240  162.6580 H   0  0  0  0  0  0  0  0  0  0  0  0
  132.0207  133.3964  161.4906 H   0  0  0  0  0  0  0  0  0  0  0  0
  130.4588  134.7808  157.0636 H   0  0  0  0  0  0  0  0  0  0  0  0
  128.8354  134.5668  156.3657 H   0  0  0  0  0  0  0  0  0  0  0  0
  129.6508  133.4076  154.3925 H   0  0  0  0  0  0  0  0  0  0  0  0
  130.3434  131.2519  153.4246 H   0  0  0  0  0  0  0  0  0  0  0  0
  131.1214  129.4359  154.8942 H   0  0  0  0  0  0  0  0  0  0  0  0
  131.1976  129.7719  157.3322 H   0  0  0  0  0  0  0  0  0  0  0  0
  130.4968  131.9247  158.3008 H   0  0  0  0  0  0  0  0  0  0  0  0
  127.1752  135.5918  162.3125 H   0  0  0  0  0  0  0  0  0  0  0  0
  126.7039  136.4989  160.8600 H   0  0  0  0  0  0  0  0  0  0  0  0
  124.6576  135.8048  161.8342 H   0  0  0  0  0  0  0  0  0  0  0  0
  1  2  2  0
  2 23  1  0
  2  3  1  0
  3  4  1  0
  3 24  1  0
  3 25  1  0
  4  5  1  0
  4 26  1  0
  4 27  1  0
  5  6  1  6
  5  7  1  0
  5 22  1  0
  7 28  1  0
  8  7  1  0
  8  9  1  0
  8 13  2  0
  9 10  1  0
  9 29  1  0
 10 12  1  0
 10 11  1  0
 10 30  1  0
 11 12  1  0
 11 31  1  0
 11 32  1  0
 12 33  1  0
 12 34  1  0
 13 14  1  0
 13 15  1  0
 15 16  1  0
 15 35  1  0
 15 36  1  0
 16 21  1  0
 16 17  2  0
 17 18  1  0
 17 37  1  0
 18 19  2  0
 18 38  1  0
 19 20  1  0
 19 39  1  0
 20 21  2  0
 20 40  1  0
 21 41  1  0
 22 23  1  0
 22 42  1  0
 22 43  1  0
 23 44  1  0
M  CHG  1  13   1
M  END
>  <DOCK_score>  (1) 
-46.667583

>  <SMILES>  (1) 
O=C1CC[C@H](NC(NC2CC2)=[NH+]Cc2ccccc2)CN1

$$$$
