CCc1ccc(-c2c[nH]c(N[C@@H](Cc3ccc(-c4ccccc4)cc3)c3ccc(F)cc3)[nH+]2)cc1
     RDKit          3D

 64 68  0  0  1  0  0  0  0  0999 V2000
  130.7297  129.9825  151.9369 C   0  0  0  0  0  0  0  0  0  0  0  0
  131.4652  129.4655  153.1742 C   0  0  0  0  0  0  0  0  0  0  0  0
  131.1061  130.3169  154.3646 C   0  0  0  0  0  0  0  0  0  0  0  0
  130.2291  131.3756  154.2151 C   0  0  0  0  0  0  0  0  0  0  0  0
  129.8929  132.1557  155.3027 C   0  0  0  0  0  0  0  0  0  0  0  0
  130.4471  131.8812  156.5518 C   0  0  0  0  0  0  0  0  0  0  0  0
  130.0935  132.7192  157.7234 C   0  0  0  0  0  0  0  0  0  0  0  0
  129.5099  132.2851  158.8680 C   0  0  0  0  0  0  0  0  0  0  0  0
  129.3633  133.3822  159.6816 N   0  0  0  0  0  0  0  0  0  0  0  0
  128.9756  133.3903  160.5708 H   0  0  0  0  0  0  0  0  0  0  0  0
  129.8621  134.4556  159.0099 C   0  0  0  0  0  0  0  0  0  0  0  0
  129.9023  135.7558  159.4836 N   0  0  0  0  0  0  0  0  0  0  0  0
  129.3778  136.0665  160.8158 C   0  0  1  0  0  0  0  0  0  0  0  0
  129.9274  135.4963  161.5647 H   0  0  0  0  0  0  0  0  0  0  0  0
  129.5418  137.5625  161.0922 C   0  0  0  0  0  0  0  0  0  0  0  0
  131.0025  137.9276  161.0297 C   0  0  0  0  0  0  0  0  0  0  0  0
  131.5631  138.3231  159.8285 C   0  0  0  0  0  0  0  0  0  0  0  0
  132.8992  138.6632  159.7664 C   0  0  0  0  0  0  0  0  0  0  0  0
  133.6863  138.5974  160.9143 C   0  0  0  0  0  0  0  0  0  0  0  0
  135.1249  138.9559  160.8525 C   0  0  0  0  0  0  0  0  0  0  0  0
  136.0337  138.3531  161.7195 C   0  0  0  0  0  0  0  0  0  0  0  0
  137.3714  138.6868  161.6545 C   0  0  0  0  0  0  0  0  0  0  0  0
  137.8085  139.6258  160.7368 C   0  0  0  0  0  0  0  0  0  0  0  0
  136.9100  140.2312  159.8780 C   0  0  0  0  0  0  0  0  0  0  0  0
  135.5708  139.9011  159.9309 C   0  0  0  0  0  0  0  0  0  0  0  0
  133.1175  138.1932  162.1205 C   0  0  0  0  0  0  0  0  0  0  0  0
  131.7791  137.8605  162.1722 C   0  0  0  0  0  0  0  0  0  0  0  0
  127.9171  135.7012  160.8784 C   0  0  0  0  0  0  0  0  0  0  0  0
  127.3562  135.3001  162.0766 C   0  0  0  0  0  0  0  0  0  0  0  0
  126.0155  134.9703  162.1364 C   0  0  0  0  0  0  0  0  0  0  0  0
  125.2365  135.0312  160.9934 C   0  0  0  0  0  0  0  0  0  0  0  0
  123.9269  134.7036  161.0495 F   0  0  0  0  0  0  0  0  0  0  0  0
  125.8007  135.4276  159.7928 C   0  0  0  0  0  0  0  0  0  0  0  0
  127.1404  135.7619  159.7364 C   0  0  0  0  0  0  0  0  0  0  0  0
  130.3020  134.0545  157.8422 N   0  0  0  0  0  0  0  0  0  0  0  0
  130.7099  134.6221  157.1696 H   0  0  0  0  0  0  0  0  0  0  0  0
  131.3344  130.8160  156.6959 C   0  0  0  0  0  0  0  0  0  0  0  0
  131.6594  130.0394  155.6022 C   0  0  0  0  0  0  0  0  0  0  0  0
  131.0213  131.0153  151.7462 H   0  0  0  0  0  0  0  0  0  0  0  0
  130.9895  129.3667  151.0758 H   0  0  0  0  0  0  0  0  0  0  0  0
  129.6541  129.9341  152.1068 H   0  0  0  0  0  0  0  0  0  0  0  0
  131.1738  128.4322  153.3652 H   0  0  0  0  0  0  0  0  0  0  0  0
  132.5410  129.5134  153.0045 H   0  0  0  0  0  0  0  0  0  0  0  0
  129.8038  131.5901  153.2458 H   0  0  0  0  0  0  0  0  0  0  0  0
  129.2045  132.9795  155.1855 H   0  0  0  0  0  0  0  0  0  0  0  0
  129.2162  131.2711  159.0961 H   0  0  0  0  0  0  0  0  0  0  0  0
  130.2775  136.4610  158.9335 H   0  0  0  0  0  0  0  0  0  0  0  0
  128.9923  138.1327  160.3433 H   0  0  0  0  0  0  0  0  0  0  0  0
  129.1514  137.7936  162.0833 H   0  0  0  0  0  0  0  0  0  0  0  0
  130.9530  138.3697  158.9385 H   0  0  0  0  0  0  0  0  0  0  0  0
  133.3349  138.9761  158.8290 H   0  0  0  0  0  0  0  0  0  0  0  0
  135.6927  137.6227  162.4385 H   0  0  0  0  0  0  0  0  0  0  0  0
  138.0773  138.2169  162.3232 H   0  0  0  0  0  0  0  0  0  0  0  0
  138.8555  139.8872  160.6931 H   0  0  0  0  0  0  0  0  0  0  0  0
  137.2567  140.9640  159.1644 H   0  0  0  0  0  0  0  0  0  0  0  0
  134.8699  140.3748  159.2596 H   0  0  0  0  0  0  0  0  0  0  0  0
  133.7230  138.1409  163.0133 H   0  0  0  0  0  0  0  0  0  0  0  0
  131.3374  137.5468  163.1066 H   0  0  0  0  0  0  0  0  0  0  0  0
  127.9651  135.2484  162.9672 H   0  0  0  0  0  0  0  0  0  0  0  0
  125.5764  134.6616  163.0735 H   0  0  0  0  0  0  0  0  0  0  0  0
  125.1941  135.4751  158.9004 H   0  0  0  0  0  0  0  0  0  0  0  0
  127.5807  136.0712  158.7999 H   0  0  0  0  0  0  0  0  0  0  0  0
  131.7670  130.5990  157.6611 H   0  0  0  0  0  0  0  0  0  0  0  0
  132.3470  129.2141  155.7126 H   0  0  0  0  0  0  0  0  0  0  0  0
  1  2  1  0
  1 39  1  0
  1 40  1  0
  1 41  1  0
  2  3  1  0
  2 42  1  0
  2 43  1  0
  3 38  2  0
  3  4  1  0
  4  5  2  0
  4 44  1  0
  5  6  1  0
  5 45  1  0
  6  7  1  0
  6 37  2  0
  7 35  1  0
  7  8  2  0
  8  9  1  0
  8 46  1  0
  9 10  1  0
  9 11  1  0
 11 12  1  0
 11 35  2  0
 12 13  1  0
 12 47  1  0
 13 14  1  1
 13 15  1  0
 13 28  1  0
 15 16  1  0
 15 48  1  0
 15 49  1  0
 16 27  1  0
 16 17  2  0
 17 18  1  0
 17 50  1  0
 18 19  2  0
 18 51  1  0
 19 20  1  0
 19 26  1  0
 20 25  1  0
 20 21  2  0
 21 22  1  0
 21 52  1  0
 22 23  2  0
 22 53  1  0
 23 24  1  0
 23 54  1  0
 24 25  2  0
 24 55  1  0
 25 56  1  0
 26 27  2  0
 26 57  1  0
 27 58  1  0
 28 34  1  0
 28 29  2  0
 29 30  1  0
 29 59  1  0
 30 31  2  0
 30 60  1  0
 31 32  1  0
 31 33  1  0
 33 34  2  0
 33 61  1  0
 34 62  1  0
 35 36  1  0
 37 38  1  0
 37 63  1  0
 38 64  1  0
M  CHG  1  35   1
M  END
>  <DOCK_score>  (1) 
-67.095001

>  <SMILES>  (1) 
CCc1ccc(-c2c[nH]c(N[C@@H](Cc3ccc(-c4ccccc4)cc3)c3ccc(F)cc3)[nH+]2)cc1

$$$$
