OC[C@@H](CNc1[nH]cc(-c2ccccc2)[nH+]1)Cc1ccccc1
     RDKit          3D

 45 47  0  0  1  0  0  0  0  0999 V2000
  132.4951  137.1194  160.3846 O   0  0  0  0  0  0  0  0  0  0  0  0
  131.6365  137.2549  161.5187 C   0  0  0  0  0  0  0  0  0  0  0  0
  130.2672  136.6529  161.1966 C   0  0  1  0  0  0  0  0  0  0  0  0
  129.8310  137.1767  160.3461 H   0  0  0  0  0  0  0  0  0  0  0  0
  130.4296  135.1707  160.8540 C   0  0  0  0  0  0  0  0  0  0  0  0
  130.8853  135.0368  159.4682 N   0  0  0  0  0  0  0  0  0  0  0  0
  130.5337  133.9206  158.7286 C   0  0  0  0  0  0  0  0  0  0  0  0
  129.7776  132.8804  159.1743 N   0  0  0  0  0  0  0  0  0  0  0  0
  129.3913  132.7886  160.0593 H   0  0  0  0  0  0  0  0  0  0  0  0
  129.6598  131.9859  158.1383 C   0  0  0  0  0  0  0  0  0  0  0  0
  130.3537  132.5007  157.0931 C   0  0  0  0  0  0  0  0  0  0  0  0
  130.5102  131.8760  155.7568 C   0  0  0  0  0  0  0  0  0  0  0  0
  130.0532  132.5368  154.6180 C   0  0  0  0  0  0  0  0  0  0  0  0
  130.2071  131.9536  153.3766 C   0  0  0  0  0  0  0  0  0  0  0  0
  130.8025  130.7101  153.2628 C   0  0  0  0  0  0  0  0  0  0  0  0
  131.2528  130.0472  154.3905 C   0  0  0  0  0  0  0  0  0  0  0  0
  131.1096  130.6236  155.6362 C   0  0  0  0  0  0  0  0  0  0  0  0
  130.8787  133.6886  157.4857 N   0  0  0  0  0  0  0  0  0  0  0  0
  131.4225  134.2728  156.9345 H   0  0  0  0  0  0  0  0  0  0  0  0
  129.3479  136.7979  162.4110 C   0  0  0  0  0  0  0  0  0  0  0  0
  127.9993  136.2050  162.0938 C   0  0  0  0  0  0  0  0  0  0  0  0
  127.2361  135.6452  163.1013 C   0  0  0  0  0  0  0  0  0  0  0  0
  126.0018  135.0953  162.8091 C   0  0  0  0  0  0  0  0  0  0  0  0
  125.5305  135.1063  161.5097 C   0  0  0  0  0  0  0  0  0  0  0  0
  126.2934  135.6666  160.5023 C   0  0  0  0  0  0  0  0  0  0  0  0
  127.5277  136.2158  160.7943 C   0  0  0  0  0  0  0  0  0  0  0  0
  132.1689  137.5619  159.5891 H   0  0  0  0  0  0  0  0  0  0  0  0
  131.5208  138.3109  161.7628 H   0  0  0  0  0  0  0  0  0  0  0  0
  132.0726  136.7311  162.3693 H   0  0  0  0  0  0  0  0  0  0  0  0
  131.1638  134.7215  161.5229 H   0  0  0  0  0  0  0  0  0  0  0  0
  129.4721  134.6633  160.9723 H   0  0  0  0  0  0  0  0  0  0  0  0
  131.4334  135.7303  159.0688 H   0  0  0  0  0  0  0  0  0  0  0  0
  129.1216  131.0497  158.1546 H   0  0  0  0  0  0  0  0  0  0  0  0
  129.5839  133.5054  154.7062 H   0  0  0  0  0  0  0  0  0  0  0  0
  129.8581  132.4670  152.4929 H   0  0  0  0  0  0  0  0  0  0  0  0
  130.9165  130.2553  152.2899 H   0  0  0  0  0  0  0  0  0  0  0  0
  131.7175  129.0770  154.2955 H   0  0  0  0  0  0  0  0  0  0  0  0
  131.4620  130.1053  156.5157 H   0  0  0  0  0  0  0  0  0  0  0  0
  129.2322  137.8540  162.6550 H   0  0  0  0  0  0  0  0  0  0  0  0
  129.7841  136.2742  163.2616 H   0  0  0  0  0  0  0  0  0  0  0  0
  127.6044  135.6367  164.1164 H   0  0  0  0  0  0  0  0  0  0  0  0
  125.4059  134.6575  163.5962 H   0  0  0  0  0  0  0  0  0  0  0  0
  124.5662  134.6766  161.2815 H   0  0  0  0  0  0  0  0  0  0  0  0
  125.9251  135.6747  159.4871 H   0  0  0  0  0  0  0  0  0  0  0  0
  128.1241  136.6533  160.0072 H   0  0  0  0  0  0  0  0  0  0  0  0
  1  2  1  0
  1 27  1  0
  2  3  1  0
  2 28  1  0
  2 29  1  0
  3  4  1  6
  3  5  1  0
  3 20  1  0
  5  6  1  0
  5 30  1  0
  5 31  1  0
  6 32  1  0
  7  6  1  0
  7 18  2  0
  7  8  1  0
  8  9  1  0
  8 10  1  0
 10 11  2  0
 10 33  1  0
 11 12  1  0
 11 18  1  0
 12 17  1  0
 12 13  2  0
 13 14  1  0
 13 34  1  0
 14 15  2  0
 14 35  1  0
 15 16  1  0
 15 36  1  0
 16 17  2  0
 16 37  1  0
 17 38  1  0
 18 19  1  0
 20 21  1  0
 20 39  1  0
 20 40  1  0
 21 26  1  0
 21 22  2  0
 22 23  1  0
 22 41  1  0
 23 24  2  0
 23 42  1  0
 24 25  1  0
 24 43  1  0
 25 26  2  0
 25 44  1  0
 26 45  1  0
M  CHG  1  18   1
M  END
>  <DOCK_score>  (1) 
-57.851471

>  <SMILES>  (1) 
OC[C@@H](CNc1[nH]cc(-c2ccccc2)[nH+]1)Cc1ccccc1

$$$$
