CC(=O)C[C@H](Nc1[nH]cc(-c2ccc(Br)cc2)[nH+]1)c1ccccc1
     RDKit          3D

 43 45  0  0  1  0  0  0  0  0999 V2000
  133.3125  137.6382  160.4163 C   0  0  0  0  0  0  0  0  0  0  0  0
  132.3541  136.7694  161.1894 C   0  0  0  0  0  0  0  0  0  0  0  0
  132.7655  136.0493  162.0672 O   0  0  0  0  0  0  0  0  0  0  0  0
  130.8814  136.8039  160.8712 C   0  0  0  0  0  0  0  0  0  0  0  0
  130.4189  135.4091  160.4450 C   0  0  2  0  0  0  0  0  0  0  0  0
  130.9016  134.6592  161.0716 H   0  0  0  0  0  0  0  0  0  0  0  0
  130.7812  135.1815  159.0439 N   0  0  0  0  0  0  0  0  0  0  0  0
  130.4631  133.9806  158.4330 C   0  0  0  0  0  0  0  0  0  0  0  0
  129.8134  132.9396  159.0216 N   0  0  0  0  0  0  0  0  0  0  0  0
  129.4929  132.9057  159.9364 H   0  0  0  0  0  0  0  0  0  0  0  0
  129.6958  131.9453  158.0808 C   0  0  0  0  0  0  0  0  0  0  0  0
  130.2764  132.4070  156.9455 C   0  0  0  0  0  0  0  0  0  0  0  0
  130.3879  131.6731  155.6613 C   0  0  0  0  0  0  0  0  0  0  0  0
  129.8061  132.1927  154.5062 C   0  0  0  0  0  0  0  0  0  0  0  0
  129.9176  131.5088  153.3129 C   0  0  0  0  0  0  0  0  0  0  0  0
  130.5958  130.3036  153.2638 C   0  0  0  0  0  0  0  0  0  0  0  0
  130.7370  129.3676  151.6268 Br  0  0  0  0  0  0  0  0  0  0  0  0
  131.1706  129.7799  154.4096 C   0  0  0  0  0  0  0  0  0  0  0  0
  131.0698  130.4587  155.6068 C   0  0  0  0  0  0  0  0  0  0  0  0
  130.7332  133.6607  157.1910 N   0  0  0  0  0  0  0  0  0  0  0  0
  131.1889  134.2287  156.5503 H   0  0  0  0  0  0  0  0  0  0  0  0
  128.9235  135.3066  160.6004 C   0  0  0  0  0  0  0  0  0  0  0  0
  128.3812  134.8637  161.7924 C   0  0  0  0  0  0  0  0  0  0  0  0
  127.0094  134.7739  161.9363 C   0  0  0  0  0  0  0  0  0  0  0  0
  126.1800  135.1183  160.8853 C   0  0  0  0  0  0  0  0  0  0  0  0
  126.7224  135.5561  159.6917 C   0  0  0  0  0  0  0  0  0  0  0  0
  128.0942  135.6501  159.5491 C   0  0  0  0  0  0  0  0  0  0  0  0
  133.6779  137.0917  159.5468 H   0  0  0  0  0  0  0  0  0  0  0  0
  132.7997  138.5423  160.0882 H   0  0  0  0  0  0  0  0  0  0  0  0
  134.1534  137.9089  161.0548 H   0  0  0  0  0  0  0  0  0  0  0  0
  130.3260  137.1165  161.7554 H   0  0  0  0  0  0  0  0  0  0  0  0
  130.7013  137.5099  160.0606 H   0  0  0  0  0  0  0  0  0  0  0  0
  131.2437  135.8723  158.5441 H   0  0  0  0  0  0  0  0  0  0  0  0
  129.2295  130.9809  158.2186 H   0  0  0  0  0  0  0  0  0  0  0  0
  129.2729  133.1310  154.5441 H   0  0  0  0  0  0  0  0  0  0  0  0
  129.4715  131.9129  152.4162 H   0  0  0  0  0  0  0  0  0  0  0  0
  131.6987  128.8389  154.3662 H   0  0  0  0  0  0  0  0  0  0  0  0
  131.5188  130.0498  156.4999 H   0  0  0  0  0  0  0  0  0  0  0  0
  129.0292  134.5912  162.6122 H   0  0  0  0  0  0  0  0  0  0  0  0
  126.5855  134.4321  162.8690 H   0  0  0  0  0  0  0  0  0  0  0  0
  125.1082  135.0455  160.9970 H   0  0  0  0  0  0  0  0  0  0  0  0
  126.0746  135.8252  158.8705 H   0  0  0  0  0  0  0  0  0  0  0  0
  128.5181  135.9922  158.6166 H   0  0  0  0  0  0  0  0  0  0  0  0
  1  2  1  0
  1 28  1  0
  1 29  1  0
  1 30  1  0
  2  3  2  0
  2  4  1  0
  4  5  1  0
  4 31  1  0
  4 32  1  0
  5  6  1  1
  5  7  1  0
  5 22  1  0
  7 33  1  0
  8  7  1  0
  8 20  2  0
  8  9  1  0
  9 10  1  0
  9 11  1  0
 11 12  2  0
 11 34  1  0
 12 13  1  0
 12 20  1  0
 13 19  1  0
 13 14  2  0
 14 15  1  0
 14 35  1  0
 15 16  2  0
 15 36  1  0
 16 17  1  0
 16 18  1  0
 18 19  2  0
 18 37  1  0
 19 38  1  0
 20 21  1  0
 22 27  1  0
 22 23  2  0
 23 24  1  0
 23 39  1  0
 24 25  2  0
 24 40  1  0
 25 26  1  0
 25 41  1  0
 26 27  2  0
 26 42  1  0
 27 43  1  0
M  CHG  1  20   1
M  END
>  <DOCK_score>  (1) 
-56.068619

>  <SMILES>  (1) 
CC(=O)C[C@H](Nc1[nH]cc(-c2ccc(Br)cc2)[nH+]1)c1ccccc1

$$$$
