Nc1ccc(-c2c[nH]c(N[C@H](C3=CCCC3)c3ccccc3C(=O)c3cccc4ccccc34)[nH+]2)cc1
     RDKit          3D

 66 71  0  0  1  0  0  0  0  0999 V2000
  131.3094  129.2329  151.5587 N   0  0  0  0  0  0  0  0  0  0  0  0
  131.0631  129.9348  152.7411 C   0  0  0  0  0  0  0  0  0  0  0  0
  130.1719  131.0023  152.7410 C   0  0  0  0  0  0  0  0  0  0  0  0
  129.9274  131.6973  153.9065 C   0  0  0  0  0  0  0  0  0  0  0  0
  130.5740  131.3290  155.0852 C   0  0  0  0  0  0  0  0  0  0  0  0
  130.3129  132.0755  156.3404 C   0  0  0  0  0  0  0  0  0  0  0  0
  129.8049  131.5575  157.4858 C   0  0  0  0  0  0  0  0  0  0  0  0
  129.7278  132.5900  158.3904 N   0  0  0  0  0  0  0  0  0  0  0  0
  129.4030  132.5318  159.3026 H   0  0  0  0  0  0  0  0  0  0  0  0
  130.1916  133.7086  157.7697 C   0  0  0  0  0  0  0  0  0  0  0  0
  130.2805  134.9679  158.3379 N   0  0  0  0  0  0  0  0  0  0  0  0
  129.8541  135.1781  159.7236 C   0  0  2  0  0  0  0  0  0  0  0  0
  130.1690  134.3311  160.3331 H   0  0  0  0  0  0  0  0  0  0  0  0
  128.3531  135.3028  159.7739 C   0  0  0  0  0  0  0  0  0  0  0  0
  127.5710  135.2314  158.7314 C   0  0  0  0  0  0  0  0  0  0  0  0
  126.1216  135.3930  159.1265 C   0  0  0  0  0  0  0  0  0  0  0  0
  126.1026  135.1691  160.6565 C   0  0  0  0  0  0  0  0  0  0  0  0
  127.5564  135.5330  161.0370 C   0  0  0  0  0  0  0  0  0  0  0  0
  130.4812  136.4407  160.2561 C   0  0  0  0  0  0  0  0  0  0  0  0
  130.2276  137.6503  159.6433 C   0  0  0  0  0  0  0  0  0  0  0  0
  130.8072  138.8098  160.1275 C   0  0  0  0  0  0  0  0  0  0  0  0
  131.6402  138.7657  161.2319 C   0  0  0  0  0  0  0  0  0  0  0  0
  131.8978  137.5641  161.8578 C   0  0  0  0  0  0  0  0  0  0  0  0
  131.3161  136.3898  161.3744 C   0  0  0  0  0  0  0  0  0  0  0  0
  131.5879  135.0983  162.0396 C   0  0  0  0  0  0  0  0  0  0  0  0
  130.7504  134.2167  162.0212 O   0  0  0  0  0  0  0  0  0  0  0  0
  132.8732  134.8791  162.7250 C   0  0  0  0  0  0  0  0  0  0  0  0
  133.9614  134.3489  162.0407 C   0  0  0  0  0  0  0  0  0  0  0  0
  135.1708  134.1441  162.6891 C   0  0  0  0  0  0  0  0  0  0  0  0
  135.3409  134.4481  164.0055 C   0  0  0  0  0  0  0  0  0  0  0  0
  134.2845  134.9867  164.7593 C   0  0  0  0  0  0  0  0  0  0  0  0
  134.4452  135.3060  166.1187 C   0  0  0  0  0  0  0  0  0  0  0  0
  133.3981  135.8267  166.8161 C   0  0  0  0  0  0  0  0  0  0  0  0
  132.1674  136.0487  166.2030 C   0  0  0  0  0  0  0  0  0  0  0  0
  131.9769  135.7506  164.8863 C   0  0  0  0  0  0  0  0  0  0  0  0
  133.0316  135.2139  164.1390 C   0  0  0  0  0  0  0  0  0  0  0  0
  130.5349  133.3984  156.5433 N   0  0  0  0  0  0  0  0  0  0  0  0
  130.8925  134.0159  155.8862 H   0  0  0  0  0  0  0  0  0  0  0  0
  131.4707  130.2616  155.0816 C   0  0  0  0  0  0  0  0  0  0  0  0
  131.7083  129.5661  153.9149 C   0  0  0  0  0  0  0  0  0  0  0  0
  130.8591  129.4898  150.7390 H   0  0  0  0  0  0  0  0  0  0  0  0
  131.9309  128.4883  151.5577 H   0  0  0  0  0  0  0  0  0  0  0  0
  129.6713  131.2872  151.8275 H   0  0  0  0  0  0  0  0  0  0  0  0
  129.2351  132.5263  153.9063 H   0  0  0  0  0  0  0  0  0  0  0  0
  129.5155  130.5308  157.6550 H   0  0  0  0  0  0  0  0  0  0  0  0
  130.6253  135.7111  157.8185 H   0  0  0  0  0  0  0  0  0  0  0  0
  127.9146  135.0754  157.7195 H   0  0  0  0  0  0  0  0  0  0  0  0
  125.5036  134.6476  158.6261 H   0  0  0  0  0  0  0  0  0  0  0  0
  125.7755  136.3981  158.8855 H   0  0  0  0  0  0  0  0  0  0  0  0
  125.8838  134.1288  160.8970 H   0  0  0  0  0  0  0  0  0  0  0  0
  125.3920  135.8388  161.1411 H   0  0  0  0  0  0  0  0  0  0  0  0
  127.9140  134.8828  161.8354 H   0  0  0  0  0  0  0  0  0  0  0  0
  127.6193  136.5780  161.3404 H   0  0  0  0  0  0  0  0  0  0  0  0
  129.5789  137.6918  158.7808 H   0  0  0  0  0  0  0  0  0  0  0  0
  130.6083  139.7535  159.6415 H   0  0  0  0  0  0  0  0  0  0  0  0
  132.0893  139.6744  161.6045 H   0  0  0  0  0  0  0  0  0  0  0  0
  132.5480  137.5311  162.7195 H   0  0  0  0  0  0  0  0  0  0  0  0
  133.8645  134.0950  160.9954 H   0  0  0  0  0  0  0  0  0  0  0  0
  136.0005  133.7316  162.1343 H   0  0  0  0  0  0  0  0  0  0  0  0
  136.2990  134.2776  164.4740 H   0  0  0  0  0  0  0  0  0  0  0  0
  135.3940  135.1394  166.6072 H   0  0  0  0  0  0  0  0  0  0  0  0
  133.5237  136.0709  167.8607 H   0  0  0  0  0  0  0  0  0  0  0  0
  131.3526  136.4625  166.7787 H   0  0  0  0  0  0  0  0  0  0  0  0
  131.0178  135.9278  164.4226 H   0  0  0  0  0  0  0  0  0  0  0  0
  131.9759  129.9771  155.9928 H   0  0  0  0  0  0  0  0  0  0  0  0
  132.3999  128.7365  153.9125 H   0  0  0  0  0  0  0  0  0  0  0  0
  1  2  1  0
  1 41  1  0
  1 42  1  0
  2 40  2  0
  2  3  1  0
  3  4  2  0
  3 43  1  0
  4  5  1  0
  4 44  1  0
  5  6  1  0
  5 39  2  0
  6 37  1  0
  6  7  2  0
  7  8  1  0
  7 45  1  0
  8  9  1  0
  8 10  1  0
 10 11  1  0
 10 37  2  0
 11 12  1  0
 11 46  1  0
 12 13  1  1
 12 14  1  0
 12 19  1  0
 14 18  1  0
 14 15  2  0
 15 16  1  0
 15 47  1  0
 16 17  1  0
 16 48  1  0
 16 49  1  0
 17 18  1  0
 17 50  1  0
 17 51  1  0
 18 52  1  0
 18 53  1  0
 19 24  1  0
 19 20  2  0
 20 21  1  0
 20 54  1  0
 21 22  2  0
 21 55  1  0
 22 23  1  0
 22 56  1  0
 23 24  2  0
 23 57  1  0
 24 25  1  0
 25 26  2  0
 25 27  1  0
 27 36  1  0
 27 28  2  0
 28 29  1  0
 28 58  1  0
 29 30  2  0
 29 59  1  0
 30 31  1  0
 30 60  1  0
 31 36  2  0
 31 32  1  0
 32 33  2  0
 32 61  1  0
 33 34  1  0
 33 62  1  0
 34 35  2  0
 34 63  1  0
 35 36  1  0
 35 64  1  0
 37 38  1  0
 39 40  1  0
 39 65  1  0
 40 66  1  0
M  CHG  1  37   1
M  END
>  <DOCK_score>  (1) 
-60.729618

>  <SMILES>  (1) 
Nc1ccc(-c2c[nH]c(N[C@H](C3=CCCC3)c3ccccc3C(=O)c3cccc4ccccc34)[nH+]2)cc1

$$$$
