O=C1CC[C@H](Nc2[nH]cc(-c3cccc(O)c3)[nH+]2)CN1
     RDKit          3D

 37 39  0  0  1  0  0  0  0  0999 V2000
  126.1702  135.3429  161.7081 O   0  0  0  0  0  0  0  0  0  0  0  0
  127.0422  135.2316  160.8725 C   0  0  0  0  0  0  0  0  0  0  0  0
  126.6867  135.4874  159.4359 C   0  0  0  0  0  0  0  0  0  0  0  0
  127.7579  134.8879  158.5215 C   0  0  0  0  0  0  0  0  0  0  0  0
  129.1340  135.3340  159.0299 C   0  0  2  0  0  0  0  0  0  0  0  0
  129.1487  136.4182  159.1419 H   0  0  0  0  0  0  0  0  0  0  0  0
  130.1675  134.9210  158.0772 N   0  0  0  0  0  0  0  0  0  0  0  0
  130.0899  133.6813  157.4660 C   0  0  0  0  0  0  0  0  0  0  0  0
  129.5318  132.5641  158.0072 N   0  0  0  0  0  0  0  0  0  0  0  0
  129.1205  132.4940  158.8829 H   0  0  0  0  0  0  0  0  0  0  0  0
  129.6553  131.5553  157.0831 C   0  0  0  0  0  0  0  0  0  0  0  0
  130.2930  132.0820  156.0085 C   0  0  0  0  0  0  0  0  0  0  0  0
  130.6496  131.3582  154.7637 C   0  0  0  0  0  0  0  0  0  0  0  0
  131.4978  130.2529  154.8162 C   0  0  0  0  0  0  0  0  0  0  0  0
  131.8234  129.5777  153.6573 C   0  0  0  0  0  0  0  0  0  0  0  0
  131.3203  130.0016  152.4412 C   0  0  0  0  0  0  0  0  0  0  0  0
  130.4796  131.1042  152.3796 C   0  0  0  0  0  0  0  0  0  0  0  0
  129.9868  131.5168  151.1821 O   0  0  0  0  0  0  0  0  0  0  0  0
  130.1427  131.7843  153.5385 C   0  0  0  0  0  0  0  0  0  0  0  0
  130.5468  133.3883  156.2730 N   0  0  0  0  0  0  0  0  0  0  0  0
  130.9945  134.0067  155.6747 H   0  0  0  0  0  0  0  0  0  0  0  0
  129.3927  134.6747  160.3853 C   0  0  0  0  0  0  0  0  0  0  0  0
  128.2627  134.8888  161.2806 N   0  0  0  0  0  0  0  0  0  0  0  0
  126.6239  136.5619  159.2643 H   0  0  0  0  0  0  0  0  0  0  0  0
  125.7232  135.0284  159.2142 H   0  0  0  0  0  0  0  0  0  0  0  0
  127.6931  133.8001  158.5445 H   0  0  0  0  0  0  0  0  0  0  0  0
  127.6102  135.2428  157.5016 H   0  0  0  0  0  0  0  0  0  0  0  0
  130.9062  135.5161  157.8746 H   0  0  0  0  0  0  0  0  0  0  0  0
  129.3141  130.5366  157.1932 H   0  0  0  0  0  0  0  0  0  0  0  0
  131.8963  129.9224  155.7640 H   0  0  0  0  0  0  0  0  0  0  0  0
  132.4770  128.7189  153.6999 H   0  0  0  0  0  0  0  0  0  0  0  0
  131.5820  129.4727  151.5366 H   0  0  0  0  0  0  0  0  0  0  0  0
  130.2773  130.9807  150.4316 H   0  0  0  0  0  0  0  0  0  0  0  0
  129.4886  132.6425  153.4920 H   0  0  0  0  0  0  0  0  0  0  0  0
  129.5416  133.6044  160.2426 H   0  0  0  0  0  0  0  0  0  0  0  0
  130.2886  135.1068  160.8309 H   0  0  0  0  0  0  0  0  0  0  0  0
  128.4091  134.7748  162.2327 H   0  0  0  0  0  0  0  0  0  0  0  0
  1  2  2  0
  2 23  1  0
  2  3  1  0
  3  4  1  0
  3 24  1  0
  3 25  1  0
  4  5  1  0
  4 26  1  0
  4 27  1  0
  5  6  1  1
  5  7  1  0
  5 22  1  0
  7 28  1  0
  8  7  1  0
  8 20  2  0
  8  9  1  0
  9 10  1  0
  9 11  1  0
 11 12  2  0
 11 29  1  0
 12 13  1  0
 12 20  1  0
 13 19  1  0
 13 14  2  0
 14 15  1  0
 14 30  1  0
 15 16  2  0
 15 31  1  0
 16 17  1  0
 16 32  1  0
 17 18  1  0
 17 19  2  0
 18 33  1  0
 19 34  1  0
 20 21  1  0
 22 23  1  0
 22 35  1  0
 22 36  1  0
 23 37  1  0
M  CHG  1  20   1
M  END
>  <DOCK_score>  (1) 
-43.411404

>  <SMILES>  (1) 
O=C1CC[C@H](Nc2[nH]cc(-c3cccc(O)c3)[nH+]2)CN1

$$$$
