O=C1CC[C@H](NC(NC2CC=CC2)=[NH+]C2CC(N[C@H]3C[C@H]3O)C2)CN1
     RDKit          3D

 55 58  0  0  1  0  0  0  0  0999 V2000
  124.0636  133.6517  161.8310 O   0  0  0  0  0  0  0  0  0  0  0  0
  125.1915  134.0299  161.5947 C   0  0  0  0  0  0  0  0  0  0  0  0
  126.2321  132.9989  161.2634 C   0  0  0  0  0  0  0  0  0  0  0  0
  127.6306  133.5985  161.4298 C   0  0  0  0  0  0  0  0  0  0  0  0
  127.6711  134.9448  160.6967 C   0  0  2  0  0  0  0  0  0  0  0  0
  127.3252  134.8135  159.6715 H   0  0  0  0  0  0  0  0  0  0  0  0
  129.0426  135.4599  160.6905 N   0  0  0  0  0  0  0  0  0  0  0  0
  129.8938  135.1362  159.6607 C   0  0  0  0  0  0  0  0  0  0  0  0
  129.4581  134.3290  158.6366 N   0  0  0  0  0  0  0  0  0  0  0  0
  130.4063  133.4610  157.9341 C   0  0  0  0  0  0  0  0  0  0  0  0
  129.6716  132.5053  156.9655 C   0  0  0  0  0  0  0  0  0  0  0  0
  130.4361  131.2050  157.0551 C   0  0  0  0  0  0  0  0  0  0  0  0
  131.1980  131.1800  158.1147 C   0  0  0  0  0  0  0  0  0  0  0  0
  131.0685  132.4592  158.9083 C   0  0  0  0  0  0  0  0  0  0  0  0
  131.1140  135.5946  159.6551 N   0  0  0  0  0  0  0  0  0  0  0  0
  131.7146  135.3662  158.9285 H   0  0  0  0  0  0  0  0  0  0  0  0
  131.5783  136.4548  160.7463 C   0  0  2  0  0  0  0  0  0  0  0  0
  131.1828  137.9313  160.5777 C   0  0  0  0  0  0  0  0  0  0  0  0
  132.5821  138.2876  161.1067 C   0  0  2  0  0  0  0  0  0  0  0  0
  133.2063  139.4175  160.4055 N   0  0  0  0  0  0  0  0  0  0  0  0
  134.6624  139.4176  160.5992 C   0  0  1  0  0  0  0  0  0  0  0  0
  135.1844  138.5298  160.2421 H   0  0  0  0  0  0  0  0  0  0  0  0
  135.3902  140.7586  160.4848 C   0  0  0  0  0  0  0  0  0  0  0  0
  135.2081  140.1014  161.8545 C   0  0  1  0  0  0  0  0  0  0  0  0
  136.0891  139.6634  162.3235 H   0  0  0  0  0  0  0  0  0  0  0  0
  134.2621  140.6910  162.7486 O   0  0  0  0  0  0  0  0  0  0  0  0
  133.0403  136.9123  160.5932 C   0  0  0  0  0  0  0  0  0  0  0  0
  126.7569  135.9284  161.4283 C   0  0  0  0  0  0  0  0  0  0  0  0
  125.4413  135.3389  161.6432 N   0  0  0  0  0  0  0  0  0  0  0  0
  126.0998  132.6691  160.2329 H   0  0  0  0  0  0  0  0  0  0  0  0
  126.1220  132.1455  161.9324 H   0  0  0  0  0  0  0  0  0  0  0  0
  128.3722  132.9246  161.0008 H   0  0  0  0  0  0  0  0  0  0  0  0
  127.8417  133.7505  162.4883 H   0  0  0  0  0  0  0  0  0  0  0  0
  129.3501  136.0296  161.4131 H   0  0  0  0  0  0  0  0  0  0  0  0
  128.5229  134.3345  158.3791 H   0  0  0  0  0  0  0  0  0  0  0  0
  131.1575  134.0503  157.4083 H   0  0  0  0  0  0  0  0  0  0  0  0
  128.6392  132.3614  157.2844 H   0  0  0  0  0  0  0  0  0  0  0  0
  129.7048  132.8961  155.9486 H   0  0  0  0  0  0  0  0  0  0  0  0
  130.3622  130.4022  156.3366 H   0  0  0  0  0  0  0  0  0  0  0  0
  131.8368  130.3532  158.3882 H   0  0  0  0  0  0  0  0  0  0  0  0
  132.0517  132.8187  159.2122 H   0  0  0  0  0  0  0  0  0  0  0  0
  130.4343  132.3023  159.7808 H   0  0  0  0  0  0  0  0  0  0  0  0
  131.3481  136.0511  161.7322 H   0  0  0  0  0  0  0  0  0  0  0  0
  130.3737  138.2448  161.2373 H   0  0  0  0  0  0  0  0  0  0  0  0
  131.0206  138.2242  159.5403 H   0  0  0  0  0  0  0  0  0  0  0  0
  132.6268  138.3858  162.1914 H   0  0  0  0  0  0  0  0  0  0  0  0
  132.8023  140.2937  160.7003 H   0  0  0  0  0  0  0  0  0  0  0  0
  136.3909  140.7530  160.0529 H   0  0  0  0  0  0  0  0  0  0  0  0
  134.7885  141.6406  160.2655 H   0  0  0  0  0  0  0  0  0  0  0  0
  133.7227  141.3864  162.3478 H   0  0  0  0  0  0  0  0  0  0  0  0
  133.3865  136.9253  159.5597 H   0  0  0  0  0  0  0  0  0  0  0  0
  133.7319  136.4038  161.2649 H   0  0  0  0  0  0  0  0  0  0  0  0
  127.1992  136.1831  162.3915 H   0  0  0  0  0  0  0  0  0  0  0  0
  126.6526  136.8349  160.8323 H   0  0  0  0  0  0  0  0  0  0  0  0
  124.7011  135.9362  161.8333 H   0  0  0  0  0  0  0  0  0  0  0  0
  1  2  2  0
  2 29  1  0
  2  3  1  0
  3  4  1  0
  3 30  1  0
  3 31  1  0
  4  5  1  0
  4 32  1  0
  4 33  1  0
  5  6  1  6
  5  7  1  0
  5 28  1  0
  7 34  1  0
  8  7  1  0
  8  9  1  0
  8 15  2  0
  9 10  1  0
  9 35  1  0
 10 14  1  0
 10 11  1  0
 10 36  1  0
 11 12  1  0
 11 37  1  0
 11 38  1  0
 12 13  2  0
 12 39  1  0
 13 14  1  0
 13 40  1  0
 14 41  1  0
 14 42  1  0
 15 16  1  0
 15 17  1  0
 17 27  1  0
 17 18  1  0
 17 43  1  1
 18 19  1  0
 18 44  1  0
 18 45  1  0
 19 20  1  0
 19 27  1  0
 19 46  1  1
 20 21  1  0
 20 47  1  0
 21 22  1  6
 21 24  1  0
 21 23  1  0
 23 24  1  0
 23 48  1  0
 23 49  1  0
 24 25  1  1
 24 26  1  0
 26 50  1  0
 27 51  1  0
 27 52  1  0
 28 29  1  0
 28 53  1  0
 28 54  1  0
 29 55  1  0
M  CHG  1  15   1
M  END
>  <DOCK_score>  (1) 
-47.868774

>  <SMILES>  (1) 
O=C1CC[C@H](NC(NC2CC=CC2)=[NH+]C2CC(N[C@H]3C[C@H]3O)C2)CN1

$$$$
