O=C1CC[C@H](NC(NC2CCCCC2)=[NH+]C2COc3ccccc3C2)CN1
     RDKit          3D

 58 61  0  0  1  0  0  0  0  0999 V2000
  125.7710  136.8926  165.4729 O   0  0  0  0  0  0  0  0  0  0  0  0
  126.6464  136.9938  164.6397 C   0  0  0  0  0  0  0  0  0  0  0  0
  127.9938  137.4889  165.0810 C   0  0  0  0  0  0  0  0  0  0  0  0
  128.8003  137.9559  163.8666 C   0  0  0  0  0  0  0  0  0  0  0  0
  128.7336  136.8609  162.7964 C   0  0  2  0  0  0  0  0  0  0  0  0
  129.0228  135.9037  163.2303 H   0  0  0  0  0  0  0  0  0  0  0  0
  129.6400  137.1992  161.6962 N   0  0  0  0  0  0  0  0  0  0  0  0
  130.2333  136.1996  160.9622 C   0  0  0  0  0  0  0  0  0  0  0  0
  131.4698  136.4033  160.3966 N   0  0  0  0  0  0  0  0  0  0  0  0
  132.4285  137.3068  161.0375 C   0  0  0  0  0  0  0  0  0  0  0  0
  132.7793  138.4439  160.0757 C   0  0  0  0  0  0  0  0  0  0  0  0
  133.7806  139.3873  160.7450 C   0  0  0  0  0  0  0  0  0  0  0  0
  135.0503  138.6126  161.1035 C   0  0  0  0  0  0  0  0  0  0  0  0
  134.6996  137.4756  162.0652 C   0  0  0  0  0  0  0  0  0  0  0  0
  133.6983  136.5320  161.3960 C   0  0  0  0  0  0  0  0  0  0  0  0
  129.6236  135.0587  160.8023 N   0  0  0  0  0  0  0  0  0  0  0  0
  128.7512  134.9151  161.2013 H   0  0  0  0  0  0  0  0  0  0  0  0
  130.2558  133.9935  160.0202 C   0  0  1  0  0  0  0  0  0  0  0  0
  129.7853  132.6265  160.5330 C   0  0  0  0  0  0  0  0  0  0  0  0
  130.4948  131.6105  159.8229 O   0  0  0  0  0  0  0  0  0  0  0  0
  130.5414  131.6975  158.4680 C   0  0  0  0  0  0  0  0  0  0  0  0
  130.8967  130.5651  157.7416 C   0  0  0  0  0  0  0  0  0  0  0  0
  130.9593  130.6152  156.3643 C   0  0  0  0  0  0  0  0  0  0  0  0
  130.6680  131.7936  155.7020 C   0  0  0  0  0  0  0  0  0  0  0  0
  130.3135  132.9191  156.4196 C   0  0  0  0  0  0  0  0  0  0  0  0
  130.2478  132.8746  157.8024 C   0  0  0  0  0  0  0  0  0  0  0  0
  129.8492  134.1220  158.5500 C   0  0  0  0  0  0  0  0  0  0  0  0
  127.2999  136.7741  162.2717 C   0  0  0  0  0  0  0  0  0  0  0  0
  126.3612  136.6589  163.3807 N   0  0  0  0  0  0  0  0  0  0  0  0
  127.8649  138.3218  165.7721 H   0  0  0  0  0  0  0  0  0  0  0  0
  128.5291  136.6829  165.5830 H   0  0  0  0  0  0  0  0  0  0  0  0
  128.3744  138.8803  163.4766 H   0  0  0  0  0  0  0  0  0  0  0  0
  129.8373  138.1238  164.1575 H   0  0  0  0  0  0  0  0  0  0  0  0
  129.8215  138.1285  161.4857 H   0  0  0  0  0  0  0  0  0  0  0  0
  131.7074  135.9488  159.5733 H   0  0  0  0  0  0  0  0  0  0  0  0
  131.9874  137.7209  161.9441 H   0  0  0  0  0  0  0  0  0  0  0  0
  133.2204  138.0297  159.1690 H   0  0  0  0  0  0  0  0  0  0  0  0
  131.8748  138.9957  159.8203 H   0  0  0  0  0  0  0  0  0  0  0  0
  133.3395  139.8015  161.6517 H   0  0  0  0  0  0  0  0  0  0  0  0
  134.0305  140.1973  160.0597 H   0  0  0  0  0  0  0  0  0  0  0  0
  135.7637  139.2848  161.5803 H   0  0  0  0  0  0  0  0  0  0  0  0
  135.4914  138.1985  160.1969 H   0  0  0  0  0  0  0  0  0  0  0  0
  134.2585  137.8897  162.9719 H   0  0  0  0  0  0  0  0  0  0  0  0
  135.6042  136.9236  162.3207 H   0  0  0  0  0  0  0  0  0  0  0  0
  133.4484  135.7220  162.0812 H   0  0  0  0  0  0  0  0  0  0  0  0
  134.1393  136.1179  160.4894 H   0  0  0  0  0  0  0  0  0  0  0  0
  131.3397  134.0662  160.1093 H   0  0  0  0  0  0  0  0  0  0  0  0
  129.9939  132.5428  161.5996 H   0  0  0  0  0  0  0  0  0  0  0  0
  128.7148  132.5175  160.3588 H   0  0  0  0  0  0  0  0  0  0  0  0
  131.1247  129.6443  158.2578 H   0  0  0  0  0  0  0  0  0  0  0  0
  131.2351  129.7342  155.8036 H   0  0  0  0  0  0  0  0  0  0  0  0
  130.7176  131.8339  154.6239 H   0  0  0  0  0  0  0  0  0  0  0  0
  130.0868  133.8384  155.9001 H   0  0  0  0  0  0  0  0  0  0  0  0
  128.7695  134.2554  158.4826 H   0  0  0  0  0  0  0  0  0  0  0  0
  130.3489  134.9848  158.1096 H   0  0  0  0  0  0  0  0  0  0  0  0
  127.2044  135.9007  161.6267 H   0  0  0  0  0  0  0  0  0  0  0  0
  127.0713  137.6723  161.6981 H   0  0  0  0  0  0  0  0  0  0  0  0
  125.4734  136.3169  163.1913 H   0  0  0  0  0  0  0  0  0  0  0  0
  1  2  2  0
  2 29  1  0
  2  3  1  0
  3  4  1  0
  3 30  1  0
  3 31  1  0
  4  5  1  0
  4 32  1  0
  4 33  1  0
  5  6  1  1
  5  7  1  0
  5 28  1  0
  7 34  1  0
  8  7  1  0
  8  9  1  0
  8 16  2  0
  9 10  1  0
  9 35  1  0
 10 15  1  0
 10 11  1  0
 10 36  1  0
 11 12  1  0
 11 37  1  0
 11 38  1  0
 12 13  1  0
 12 39  1  0
 12 40  1  0
 13 14  1  0
 13 41  1  0
 13 42  1  0
 14 15  1  0
 14 43  1  0
 14 44  1  0
 15 45  1  0
 15 46  1  0
 16 17  1  0
 16 18  1  0
 18 27  1  0
 18 19  1  0
 18 47  1  6
 19 20  1  0
 19 48  1  0
 19 49  1  0
 20 21  1  0
 21 26  2  0
 21 22  1  0
 22 23  2  0
 22 50  1  0
 23 24  1  0
 23 51  1  0
 24 25  2  0
 24 52  1  0
 25 26  1  0
 25 53  1  0
 26 27  1  0
 27 54  1  0
 27 55  1  0
 28 29  1  0
 28 56  1  0
 28 57  1  0
 29 58  1  0
M  CHG  1  16   1
M  END
>  <DOCK_score>  (1) 
-42.013527

>  <SMILES>  (1) 
O=C1CC[C@H](NC(NC2CCCCC2)=[NH+]C2COc3ccccc3C2)CN1

$$$$
