O=C1CC[C@H](NC(NC2CC2)=[NH+]Cc2ncccc2O)CN1
     RDKit          3D

 44 46  0  0  1  0  0  0  0  0999 V2000
  123.7786  133.8481  161.8505 O   0  0  0  0  0  0  0  0  0  0  0  0
  124.9583  133.9082  161.5750 C   0  0  0  0  0  0  0  0  0  0  0  0
  125.7989  132.6803  161.7772 C   0  0  0  0  0  0  0  0  0  0  0  0
  127.2810  133.0619  161.8012 C   0  0  0  0  0  0  0  0  0  0  0  0
  127.5701  133.9587  160.5915 C   0  0  2  0  0  0  0  0  0  0  0  0
  127.2153  133.4727  159.6826 H   0  0  0  0  0  0  0  0  0  0  0  0
  129.0120  134.1978  160.4902 N   0  0  0  0  0  0  0  0  0  0  0  0
  129.5892  134.4078  159.2603 C   0  0  0  0  0  0  0  0  0  0  0  0
  130.9423  134.6321  159.1653 N   0  0  0  0  0  0  0  0  0  0  0  0
  131.7690  134.6472  160.3748 C   0  0  0  0  0  0  0  0  0  0  0  0
  132.2124  133.2985  160.9449 C   0  0  0  0  0  0  0  0  0  0  0  0
  133.2265  134.2017  160.2400 C   0  0  0  0  0  0  0  0  0  0  0  0
  128.8539  134.3943  158.1843 N   0  0  0  0  0  0  0  0  0  0  0  0
  127.9247  134.6696  158.2284 H   0  0  0  0  0  0  0  0  0  0  0  0
  129.4303  133.9635  156.9083 C   0  0  0  0  0  0  0  0  0  0  0  0
  129.9202  132.5437  157.0321 C   0  0  0  0  0  0  0  0  0  0  0  0
  129.7907  131.9067  158.1791 N   0  0  0  0  0  0  0  0  0  0  0  0
  130.2000  130.6628  158.3327 C   0  0  0  0  0  0  0  0  0  0  0  0
  130.7955  129.9778  157.2897 C   0  0  0  0  0  0  0  0  0  0  0  0
  130.9559  130.6117  156.0685 C   0  0  0  0  0  0  0  0  0  0  0  0
  130.5078  131.9227  155.9399 C   0  0  0  0  0  0  0  0  0  0  0  0
  130.6433  132.5850  154.7609 O   0  0  0  0  0  0  0  0  0  0  0  0
  126.8417  135.2895  160.7834 C   0  0  0  0  0  0  0  0  0  0  0  0
  125.4396  135.0614  161.1093 N   0  0  0  0  0  0  0  0  0  0  0  0
  125.6185  131.9797  160.9619 H   0  0  0  0  0  0  0  0  0  0  0  0
  125.5308  132.2097  162.7232 H   0  0  0  0  0  0  0  0  0  0  0  0
  127.8927  132.1615  161.7450 H   0  0  0  0  0  0  0  0  0  0  0  0
  127.5061  133.6022  162.7207 H   0  0  0  0  0  0  0  0  0  0  0  0
  129.5593  134.2078  161.2910 H   0  0  0  0  0  0  0  0  0  0  0  0
  131.3498  134.7802  158.2975 H   0  0  0  0  0  0  0  0  0  0  0  0
  131.5502  135.4459  161.0836 H   0  0  0  0  0  0  0  0  0  0  0  0
  132.2856  133.2097  162.0287 H   0  0  0  0  0  0  0  0  0  0  0  0
  131.8892  132.3995  160.4201 H   0  0  0  0  0  0  0  0  0  0  0  0
  133.5703  133.8971  159.2515 H   0  0  0  0  0  0  0  0  0  0  0  0
  133.9667  134.7074  160.8601 H   0  0  0  0  0  0  0  0  0  0  0  0
  128.6702  134.0190  156.1290 H   0  0  0  0  0  0  0  0  0  0  0  0
  130.2651  134.6145  156.6484 H   0  0  0  0  0  0  0  0  0  0  0  0
  130.0726  130.1739  159.2872 H   0  0  0  0  0  0  0  0  0  0  0  0
  131.1319  128.9606  157.4257 H   0  0  0  0  0  0  0  0  0  0  0  0
  131.4180  130.1010  155.2365 H   0  0  0  0  0  0  0  0  0  0  0  0
  130.3000  133.4890  154.7760 H   0  0  0  0  0  0  0  0  0  0  0  0
  127.3140  135.8452  161.5935 H   0  0  0  0  0  0  0  0  0  0  0  0
  126.9079  135.8723  159.8645 H   0  0  0  0  0  0  0  0  0  0  0  0
  124.8175  135.7941  160.9792 H   0  0  0  0  0  0  0  0  0  0  0  0
  1  2  2  0
  2 24  1  0
  2  3  1  0
  3  4  1  0
  3 25  1  0
  3 26  1  0
  4  5  1  0
  4 27  1  0
  4 28  1  0
  5  6  1  6
  5  7  1  0
  5 23  1  0
  7 29  1  0
  8  7  1  0
  8  9  1  0
  8 13  2  0
  9 10  1  0
  9 30  1  0
 10 12  1  0
 10 11  1  0
 10 31  1  0
 11 12  1  0
 11 32  1  0
 11 33  1  0
 12 34  1  0
 12 35  1  0
 13 14  1  0
 13 15  1  0
 15 16  1  0
 15 36  1  0
 15 37  1  0
 16 21  1  0
 16 17  2  0
 17 18  1  0
 18 19  2  0
 18 38  1  0
 19 20  1  0
 19 39  1  0
 20 21  2  0
 20 40  1  0
 21 22  1  0
 22 41  1  0
 23 24  1  0
 23 42  1  0
 23 43  1  0
 24 44  1  0
M  CHG  1  13   1
M  END
>  <DOCK_score>  (1) 
-47.99881

>  <SMILES>  (1) 
O=C1CC[C@H](NC(NC2CC2)=[NH+]Cc2ncccc2O)CN1

$$$$
