C[C@@H](CCc1ccccc1)Nc1ccc(C(=O)N[C@H]2CC[NH2+]C3(CCC3)C2)cc1
     RDKit          3D

 63 66  0  0  1  0  0  0  0  0999 V2000
  126.0126  141.9687  165.7081 C   0  0  0  0  0  0  0  0  0  0  0  0
  127.1406  140.9397  165.6087 C   0  0  1  0  0  0  0  0  0  0  0  0
  127.6867  141.0880  164.6772 H   0  0  0  0  0  0  0  0  0  0  0  0
  128.0947  141.1131  166.7923 C   0  0  0  0  0  0  0  0  0  0  0  0
  129.0447  142.2799  166.5149 C   0  0  0  0  0  0  0  0  0  0  0  0
  129.8394  141.9948  165.2666 C   0  0  0  0  0  0  0  0  0  0  0  0
  131.0522  141.3373  165.3545 C   0  0  0  0  0  0  0  0  0  0  0  0
  131.7789  141.0715  164.2088 C   0  0  0  0  0  0  0  0  0  0  0  0
  131.2976  141.4724  162.9765 C   0  0  0  0  0  0  0  0  0  0  0  0
  130.0872  142.1344  162.8892 C   0  0  0  0  0  0  0  0  0  0  0  0
  129.3582  142.3956  164.0342 C   0  0  0  0  0  0  0  0  0  0  0  0
  126.5733  139.5892  165.6326 N   0  0  0  0  0  0  0  0  0  0  0  0
  126.7792  138.7298  164.5592 C   0  0  0  0  0  0  0  0  0  0  0  0
  127.9411  138.8331  163.7995 C   0  0  0  0  0  0  0  0  0  0  0  0
  128.1475  137.9842  162.7361 C   0  0  0  0  0  0  0  0  0  0  0  0
  127.1890  137.0170  162.4195 C   0  0  0  0  0  0  0  0  0  0  0  0
  127.4070  136.1059  161.2800 C   0  0  0  0  0  0  0  0  0  0  0  0
  126.4553  135.6308  160.6907 O   0  0  0  0  0  0  0  0  0  0  0  0
  128.6610  135.7999  160.8921 N   0  0  0  0  0  0  0  0  0  0  0  0
  128.8774  134.8950  159.7606 C   0  0  1  0  0  0  0  0  0  0  0  0
  128.0529  134.1847  159.6987 H   0  0  0  0  0  0  0  0  0  0  0  0
  128.9535  135.7055  158.4637 C   0  0  0  0  0  0  0  0  0  0  0  0
  129.2157  134.7628  157.2878 C   0  0  0  0  0  0  0  0  0  0  0  0
  130.5054  134.0852  157.4759 N   0  0  0  0  0  0  0  0  0  0  0  0
  131.2403  134.7736  157.5386 H   0  0  0  0  0  0  0  0  0  0  0  0
  130.6817  133.4762  156.6909 H   0  0  0  0  0  0  0  0  0  0  0  0
  130.4717  133.2943  158.7086 C   0  0  0  0  0  0  0  0  0  0  0  0
  129.5880  132.0436  158.6099 C   0  0  0  0  0  0  0  0  0  0  0  0
  130.8369  131.2967  158.1110 C   0  0  0  0  0  0  0  0  0  0  0  0
  131.6712  132.3475  158.8638 C   0  0  0  0  0  0  0  0  0  0  0  0
  130.1949  134.1359  159.9533 C   0  0  0  0  0  0  0  0  0  0  0  0
  126.0210  136.9191  163.1814 C   0  0  0  0  0  0  0  0  0  0  0  0
  125.8229  137.7673  164.2466 C   0  0  0  0  0  0  0  0  0  0  0  0
  126.4347  142.9734  165.6904 H   0  0  0  0  0  0  0  0  0  0  0  0
  125.3330  141.8450  164.8650 H   0  0  0  0  0  0  0  0  0  0  0  0
  125.4666  141.8203  166.6397 H   0  0  0  0  0  0  0  0  0  0  0  0
  127.5199  141.3194  167.6952 H   0  0  0  0  0  0  0  0  0  0  0  0
  128.6723  140.1991  166.9302 H   0  0  0  0  0  0  0  0  0  0  0  0
  128.4671  143.1939  166.3770 H   0  0  0  0  0  0  0  0  0  0  0  0
  129.7244  142.4034  167.3579 H   0  0  0  0  0  0  0  0  0  0  0  0
  131.4303  141.0280  166.3176 H   0  0  0  0  0  0  0  0  0  0  0  0
  132.7247  140.5546  164.2771 H   0  0  0  0  0  0  0  0  0  0  0  0
  131.8674  141.2686  162.0820 H   0  0  0  0  0  0  0  0  0  0  0  0
  129.7115  142.4479  161.9265 H   0  0  0  0  0  0  0  0  0  0  0  0
  128.4127  142.9131  163.9662 H   0  0  0  0  0  0  0  0  0  0  0  0
  126.0541  139.2947  166.3972 H   0  0  0  0  0  0  0  0  0  0  0  0
  128.6812  139.5804  164.0446 H   0  0  0  0  0  0  0  0  0  0  0  0
  129.0492  138.0648  162.1471 H   0  0  0  0  0  0  0  0  0  0  0  0
  129.4201  136.1788  161.3622 H   0  0  0  0  0  0  0  0  0  0  0  0
  129.7640  136.4308  158.5357 H   0  0  0  0  0  0  0  0  0  0  0  0
  128.0104  136.2289  158.3065 H   0  0  0  0  0  0  0  0  0  0  0  0
  129.2390  135.3364  156.3612 H   0  0  0  0  0  0  0  0  0  0  0  0
  128.4199  134.0199  157.2340 H   0  0  0  0  0  0  0  0  0  0  0  0
  128.7991  132.1239  157.8620 H   0  0  0  0  0  0  0  0  0  0  0  0
  129.2231  131.6893  159.5739 H   0  0  0  0  0  0  0  0  0  0  0  0
  130.9344  130.2897  158.5166 H   0  0  0  0  0  0  0  0  0  0  0  0
  130.9629  131.3310  157.0289 H   0  0  0  0  0  0  0  0  0  0  0  0
  131.8824  132.0781  159.8987 H   0  0  0  0  0  0  0  0  0  0  0  0
  132.5593  132.6710  158.3209 H   0  0  0  0  0  0  0  0  0  0  0  0
  130.1165  133.4846  160.8238 H   0  0  0  0  0  0  0  0  0  0  0  0
  131.0075  134.8473  160.1005 H   0  0  0  0  0  0  0  0  0  0  0  0
  125.2768  136.1756  162.9367 H   0  0  0  0  0  0  0  0  0  0  0  0
  124.9227  137.6894  164.8381 H   0  0  0  0  0  0  0  0  0  0  0  0
  1  2  1  0
  1 34  1  0
  1 35  1  0
  1 36  1  0
  2  3  1  6
  2  4  1  0
  2 12  1  0
  4  5  1  0
  4 37  1  0
  4 38  1  0
  5  6  1  0
  5 39  1  0
  5 40  1  0
  6 11  1  0
  6  7  2  0
  7  8  1  0
  7 41  1  0
  8  9  2  0
  8 42  1  0
  9 10  1  0
  9 43  1  0
 10 11  2  0
 10 44  1  0
 11 45  1  0
 12 13  1  0
 12 46  1  0
 13 33  1  0
 13 14  2  0
 14 15  1  0
 14 47  1  0
 15 16  2  0
 15 48  1  0
 16 17  1  0
 16 32  1  0
 17 18  2  0
 17 19  1  0
 19 20  1  0
 19 49  1  0
 20 21  1  6
 20 31  1  0
 20 22  1  0
 22 23  1  0
 22 50  1  0
 22 51  1  0
 23 24  1  0
 23 52  1  0
 23 53  1  0
 24 25  1  0
 24 26  1  0
 24 27  1  0
 27 30  1  0
 27 28  1  0
 27 31  1  0
 28 29  1  0
 28 54  1  0
 28 55  1  0
 29 30  1  0
 29 56  1  0
 29 57  1  0
 30 58  1  0
 30 59  1  0
 31 60  1  0
 31 61  1  0
 32 33  2  0
 32 62  1  0
 33 63  1  0
M  CHG  1  24   1
M  END
>  <DOCK_score>  (1) 
-41.488419

>  <SMILES>  (1) 
C[C@@H](CCc1ccccc1)Nc1ccc(C(=O)N[C@H]2CC[NH2+]C3(CCC3)C2)cc1

$$$$
