O=C1CC[C@H](NC(NC2CC3COCC3C2)=[NH+]C2COc3ccccc3C2)CN1
     RDKit          3D

 60 64  0  0  1  0  0  0  0  0999 V2000
  124.9175  135.3678  164.1833 O   0  0  0  0  0  0  0  0  0  0  0  0
  126.0087  135.6249  163.7206 C   0  0  0  0  0  0  0  0  0  0  0  0
  127.2205  135.0506  164.3964 C   0  0  0  0  0  0  0  0  0  0  0  0
  128.4723  135.8150  163.9586 C   0  0  0  0  0  0  0  0  0  0  0  0
  128.4654  135.9209  162.4289 C   0  0  2  0  0  0  0  0  0  0  0  0
  128.3330  134.9300  161.9943 H   0  0  0  0  0  0  0  0  0  0  0  0
  129.7336  136.4931  161.9700 N   0  0  0  0  0  0  0  0  0  0  0  0
  130.2385  136.1471  160.7390 C   0  0  0  0  0  0  0  0  0  0  0  0
  129.5531  135.2640  159.9386 N   0  0  0  0  0  0  0  0  0  0  0  0
  130.2838  134.3980  159.0101 C   0  0  2  0  0  0  0  0  0  0  0  0
  129.3271  133.3831  158.3377 C   0  0  0  0  0  0  0  0  0  0  0  0
  130.2462  132.2184  157.9126 C   0  0  2  0  0  0  0  0  0  0  0  0
  129.5732  130.8829  158.2973 C   0  0  0  0  0  0  0  0  0  0  0  0
  130.6366  130.0774  158.8497 O   0  0  0  0  0  0  0  0  0  0  0  0
  131.4195  130.9832  159.6569 C   0  0  0  0  0  0  0  0  0  0  0  0
  131.4942  132.2862  158.8315 C   0  0  2  0  0  0  0  0  0  0  0  0
  131.2740  133.4855  159.7744 C   0  0  0  0  0  0  0  0  0  0  0  0
  131.3668  136.6561  160.3307 N   0  0  0  0  0  0  0  0  0  0  0  0
  131.5236  136.7902  159.3829 H   0  0  0  0  0  0  0  0  0  0  0  0
  132.3980  137.0258  161.3032 C   0  0  1  0  0  0  0  0  0  0  0  0
  132.8434  135.7819  162.0830 C   0  0  0  0  0  0  0  0  0  0  0  0
  133.7704  136.1894  163.0901 O   0  0  0  0  0  0  0  0  0  0  0  0
  134.7978  136.9966  162.7185 C   0  0  0  0  0  0  0  0  0  0  0  0
  135.8932  137.1114  163.5688 C   0  0  0  0  0  0  0  0  0  0  0  0
  136.9540  137.9252  163.2285 C   0  0  0  0  0  0  0  0  0  0  0  0
  136.9300  138.6300  162.0388 C   0  0  0  0  0  0  0  0  0  0  0  0
  135.8452  138.5171  161.1917 C   0  0  0  0  0  0  0  0  0  0  0  0
  134.7782  137.7001  161.5271 C   0  0  0  0  0  0  0  0  0  0  0  0
  133.6161  137.5959  160.5722 C   0  0  0  0  0  0  0  0  0  0  0  0
  127.3098  136.8241  162.0025 C   0  0  0  0  0  0  0  0  0  0  0  0
  126.0682  136.4022  162.6387 N   0  0  0  0  0  0  0  0  0  0  0  0
  127.1054  135.1328  165.4772 H   0  0  0  0  0  0  0  0  0  0  0  0
  127.3236  134.0004  164.1233 H   0  0  0  0  0  0  0  0  0  0  0  0
  128.4640  136.8136  164.3956 H   0  0  0  0  0  0  0  0  0  0  0  0
  129.3630  135.2785  164.2854 H   0  0  0  0  0  0  0  0  0  0  0  0
  130.2170  137.1162  162.5348 H   0  0  0  0  0  0  0  0  0  0  0  0
  128.5856  135.2143  159.9887 H   0  0  0  0  0  0  0  0  0  0  0  0
  130.8062  134.9919  158.2600 H   0  0  0  0  0  0  0  0  0  0  0  0
  128.5789  133.0354  159.0500 H   0  0  0  0  0  0  0  0  0  0  0  0
  128.8471  133.8308  157.4675 H   0  0  0  0  0  0  0  0  0  0  0  0
  130.5094  132.2733  156.8562 H   0  0  0  0  0  0  0  0  0  0  0  0
  128.7973  131.0506  159.0442 H   0  0  0  0  0  0  0  0  0  0  0  0
  129.1528  130.4018  157.4140 H   0  0  0  0  0  0  0  0  0  0  0  0
  132.4189  130.5793  159.8192 H   0  0  0  0  0  0  0  0  0  0  0  0
  130.9242  131.1662  160.6104 H   0  0  0  0  0  0  0  0  0  0  0  0
  132.4196  132.3770  158.2629 H   0  0  0  0  0  0  0  0  0  0  0  0
  132.2140  134.0079  159.9521 H   0  0  0  0  0  0  0  0  0  0  0  0
  130.8380  133.1560  160.7176 H   0  0  0  0  0  0  0  0  0  0  0  0
  132.0017  137.7701  161.9940 H   0  0  0  0  0  0  0  0  0  0  0  0
  131.9776  135.3118  162.5495 H   0  0  0  0  0  0  0  0  0  0  0  0
  133.3239  135.0764  161.4052 H   0  0  0  0  0  0  0  0  0  0  0  0
  135.9131  136.5617  164.4982 H   0  0  0  0  0  0  0  0  0  0  0  0
  137.8029  138.0116  163.8905 H   0  0  0  0  0  0  0  0  0  0  0  0
  137.7591  139.2688  161.7725 H   0  0  0  0  0  0  0  0  0  0  0  0
  135.8289  139.0681  160.2630 H   0  0  0  0  0  0  0  0  0  0  0  0
  133.8838  136.9380  159.7455 H   0  0  0  0  0  0  0  0  0  0  0  0
  133.3757  138.5858  160.1840 H   0  0  0  0  0  0  0  0  0  0  0  0
  127.1941  136.7769  160.9198 H   0  0  0  0  0  0  0  0  0  0  0  0
  127.5332  137.8504  162.2936 H   0  0  0  0  0  0  0  0  0  0  0  0
  125.2325  136.7027  162.2482 H   0  0  0  0  0  0  0  0  0  0  0  0
  1  2  2  0
  2 31  1  0
  2  3  1  0
  3  4  1  0
  3 32  1  0
  3 33  1  0
  4  5  1  0
  4 34  1  0
  4 35  1  0
  5  6  1  6
  5  7  1  0
  5 30  1  0
  7 36  1  0
  8  7  1  0
  8  9  1  0
  8 18  2  0
  9 10  1  0
  9 37  1  0
 10 17  1  0
 10 11  1  0
 10 38  1  6
 11 12  1  0
 11 39  1  0
 11 40  1  0
 12 16  1  0
 12 13  1  0
 12 41  1  6
 13 14  1  0
 13 42  1  0
 13 43  1  0
 14 15  1  0
 15 16  1  0
 15 44  1  0
 15 45  1  0
 16 17  1  0
 16 46  1  6
 17 47  1  0
 17 48  1  0
 18 19  1  0
 18 20  1  0
 20 29  1  0
 20 21  1  0
 20 49  1  1
 21 22  1  0
 21 50  1  0
 21 51  1  0
 22 23  1  0
 23 28  2  0
 23 24  1  0
 24 25  2  0
 24 52  1  0
 25 26  1  0
 25 53  1  0
 26 27  2  0
 26 54  1  0
 27 28  1  0
 27 55  1  0
 28 29  1  0
 29 56  1  0
 29 57  1  0
 30 31  1  0
 30 58  1  0
 30 59  1  0
 31 60  1  0
M  CHG  1  18   1
M  END
>  <DOCK_score>  (1) 
-44.20945

>  <SMILES>  (1) 
O=C1CC[C@H](NC(NC2CC3COCC3C2)=[NH+]C2COc3ccccc3C2)CN1

$$$$
