Cc1cccc(N2CC[NH+](C(c3ccccc3)c3ccccc3)CC2)c1N[C@H]1CCC(=O)NC1
     RDKit          3D

 69 73  0  0  1  0  0  0  0  0999 V2000
  135.2995  140.5947  163.6723 C   0  0  0  0  0  0  0  0  0  0  0  0
  134.8871  140.0205  162.3414 C   0  0  0  0  0  0  0  0  0  0  0  0
  135.4352  140.5187  161.1741 C   0  0  0  0  0  0  0  0  0  0  0  0
  135.0592  139.9956  159.9507 C   0  0  0  0  0  0  0  0  0  0  0  0
  134.1370  138.9667  159.8883 C   0  0  0  0  0  0  0  0  0  0  0  0
  133.5789  138.4645  161.0536 C   0  0  0  0  0  0  0  0  0  0  0  0
  132.6416  137.4261  160.9924 N   0  0  0  0  0  0  0  0  0  0  0  0
  131.4272  137.8539  160.2837 C   0  0  0  0  0  0  0  0  0  0  0  0
  130.4075  136.7129  160.2907 C   0  0  0  0  0  0  0  0  0  0  0  0
  130.9877  135.5333  159.6356 N   0  0  0  0  0  0  0  0  0  0  0  0
  131.2403  135.7659  158.6867 H   0  0  0  0  0  0  0  0  0  0  0  0
  130.0021  134.4440  159.6266 C   0  0  0  0  0  0  0  0  0  0  0  0
  130.5972  133.2336  158.9545 C   0  0  0  0  0  0  0  0  0  0  0  0
  130.4580  133.0625  157.5899 C   0  0  0  0  0  0  0  0  0  0  0  0
  131.0042  131.9524  156.9732 C   0  0  0  0  0  0  0  0  0  0  0  0
  131.6897  131.0136  157.7211 C   0  0  0  0  0  0  0  0  0  0  0  0
  131.8293  131.1849  159.0857 C   0  0  0  0  0  0  0  0  0  0  0  0
  131.2838  132.2954  159.7022 C   0  0  0  0  0  0  0  0  0  0  0  0
  128.7738  134.8842  158.8726 C   0  0  0  0  0  0  0  0  0  0  0  0
  127.5354  134.3694  159.2077 C   0  0  0  0  0  0  0  0  0  0  0  0
  126.4082  134.7766  158.5189 C   0  0  0  0  0  0  0  0  0  0  0  0
  126.5204  135.6917  157.4889 C   0  0  0  0  0  0  0  0  0  0  0  0
  127.7595  136.2025  157.1503 C   0  0  0  0  0  0  0  0  0  0  0  0
  128.8862  135.7987  157.8418 C   0  0  0  0  0  0  0  0  0  0  0  0
  132.1855  135.1033  160.3689 C   0  0  0  0  0  0  0  0  0  0  0  0
  133.2200  136.2309  160.3625 C   0  0  0  0  0  0  0  0  0  0  0  0
  133.9583  138.9929  162.2879 C   0  0  0  0  0  0  0  0  0  0  0  0
  133.4020  138.4869  163.4689 N   0  0  0  0  0  0  0  0  0  0  0  0
  131.9420  138.6498  163.4753 C   0  0  1  0  0  0  0  0  0  0  0  0
  131.5106  138.1139  162.6297 H   0  0  0  0  0  0  0  0  0  0  0  0
  131.3679  138.0936  164.7838 C   0  0  0  0  0  0  0  0  0  0  0  0
  129.8407  138.1114  164.6886 C   0  0  0  0  0  0  0  0  0  0  0  0
  129.3716  139.4547  164.2079 C   0  0  0  0  0  0  0  0  0  0  0  0
  128.2081  139.7512  164.3784 O   0  0  0  0  0  0  0  0  0  0  0  0
  130.1662  140.3388  163.6033 N   0  0  0  0  0  0  0  0  0  0  0  0
  131.5911  140.1347  163.3746 C   0  0  0  0  0  0  0  0  0  0  0  0
  136.1583  140.0435  164.0553 H   0  0  0  0  0  0  0  0  0  0  0  0
  135.5673  141.6439  163.5480 H   0  0  0  0  0  0  0  0  0  0  0  0
  134.4713  140.5119  164.3761 H   0  0  0  0  0  0  0  0  0  0  0  0
  136.1588  141.3194  161.2171 H   0  0  0  0  0  0  0  0  0  0  0  0
  135.4897  140.3887  159.0415 H   0  0  0  0  0  0  0  0  0  0  0  0
  133.8490  138.5569  158.9314 H   0  0  0  0  0  0  0  0  0  0  0  0
  131.6782  138.1109  159.2545 H   0  0  0  0  0  0  0  0  0  0  0  0
  131.0023  138.7247  160.7829 H   0  0  0  0  0  0  0  0  0  0  0  0
  129.5114  137.0231  159.7532 H   0  0  0  0  0  0  0  0  0  0  0  0
  130.1464  136.4654  161.3197 H   0  0  0  0  0  0  0  0  0  0  0  0
  129.7287  134.1930  160.6514 H   0  0  0  0  0  0  0  0  0  0  0  0
  129.9263  133.7984  157.0047 H   0  0  0  0  0  0  0  0  0  0  0  0
  130.8951  131.8186  155.9071 H   0  0  0  0  0  0  0  0  0  0  0  0
  132.1158  130.1459  157.2395 H   0  0  0  0  0  0  0  0  0  0  0  0
  132.3642  130.4510  159.6702 H   0  0  0  0  0  0  0  0  0  0  0  0
  131.3927  132.4292  160.7684 H   0  0  0  0  0  0  0  0  0  0  0  0
  127.4482  133.6517  160.0100 H   0  0  0  0  0  0  0  0  0  0  0  0
  125.4401  134.3777  158.7837 H   0  0  0  0  0  0  0  0  0  0  0  0
  125.6402  136.0076  156.9490 H   0  0  0  0  0  0  0  0  0  0  0  0
  127.8473  136.9174  156.3454 H   0  0  0  0  0  0  0  0  0  0  0  0
  129.8542  136.1978  157.5773 H   0  0  0  0  0  0  0  0  0  0  0  0
  131.9153  134.8640  161.3975 H   0  0  0  0  0  0  0  0  0  0  0  0
  132.6075  134.2202  159.8895 H   0  0  0  0  0  0  0  0  0  0  0  0
  133.5005  136.4610  159.3347 H   0  0  0  0  0  0  0  0  0  0  0  0
  134.1034  135.9177  160.9191 H   0  0  0  0  0  0  0  0  0  0  0  0
  133.6585  137.5205  163.6043 H   0  0  0  0  0  0  0  0  0  0  0  0
  131.7164  137.0714  164.9322 H   0  0  0  0  0  0  0  0  0  0  0  0
  131.6885  138.7161  165.6191 H   0  0  0  0  0  0  0  0  0  0  0  0
  129.4136  137.9090  165.6707 H   0  0  0  0  0  0  0  0  0  0  0  0
  129.5152  137.3424  163.9881 H   0  0  0  0  0  0  0  0  0  0  0  0
  129.7709  141.1696  163.2961 H   0  0  0  0  0  0  0  0  0  0  0  0
  132.1589  140.6906  164.1208 H   0  0  0  0  0  0  0  0  0  0  0  0
  131.8492  140.4995  162.3804 H   0  0  0  0  0  0  0  0  0  0  0  0
  1  2  1  0
  1 37  1  0
  1 38  1  0
  1 39  1  0
  2 27  2  0
  2  3  1  0
  3  4  2  0
  3 40  1  0
  4  5  1  0
  4 41  1  0
  5  6  2  0
  5 42  1  0
  6  7  1  0
  6 27  1  0
  7 26  1  0
  7  8  1  0
  8  9  1  0
  8 43  1  0
  8 44  1  0
  9 10  1  0
  9 45  1  0
  9 46  1  0
 10 11  1  0
 10 12  1  0
 10 25  1  0
 12 13  1  0
 12 19  1  0
 12 47  1  0
 13 18  1  0
 13 14  2  0
 14 15  1  0
 14 48  1  0
 15 16  2  0
 15 49  1  0
 16 17  1  0
 16 50  1  0
 17 18  2  0
 17 51  1  0
 18 52  1  0
 19 24  1  0
 19 20  2  0
 20 21  1  0
 20 53  1  0
 21 22  2  0
 21 54  1  0
 22 23  1  0
 22 55  1  0
 23 24  2  0
 23 56  1  0
 24 57  1  0
 25 26  1  0
 25 58  1  0
 25 59  1  0
 26 60  1  0
 26 61  1  0
 27 28  1  0
 28 29  1  0
 28 62  1  0
 29 30  1  6
 29 36  1  0
 29 31  1  0
 31 32  1  0
 31 63  1  0
 31 64  1  0
 32 33  1  0
 32 65  1  0
 32 66  1  0
 33 34  2  0
 33 35  1  0
 35 36  1  0
 35 67  1  0
 36 68  1  0
 36 69  1  0
M  CHG  1  10   1
M  END
>  <DOCK_score>  (1) 
-57.866264

>  <SMILES>  (1) 
Cc1cccc(N2CC[NH+](C(c3ccccc3)c3ccccc3)CC2)c1N[C@H]1CCC(=O)NC1

$$$$
