CCc1ccc(-c2c[nH]c(N[C@H](c3ccccc3-c3ccnn3CC)c3cccc4ccccc34)[nH+]2)cc1
     RDKit          3D

 70 75  0  0  1  0  0  0  0  0999 V2000
  129.9304  129.1562  151.3582 C   0  0  0  0  0  0  0  0  0  0  0  0
  131.2442  129.6906  151.9321 C   0  0  0  0  0  0  0  0  0  0  0  0
  130.9654  130.4415  153.2087 C   0  0  0  0  0  0  0  0  0  0  0  0
  130.9767  129.7727  154.4186 C   0  0  0  0  0  0  0  0  0  0  0  0
  130.7281  130.4571  155.5911 C   0  0  0  0  0  0  0  0  0  0  0  0
  130.4543  131.8232  155.5528 C   0  0  0  0  0  0  0  0  0  0  0  0
  130.1808  132.5632  156.8089 C   0  0  0  0  0  0  0  0  0  0  0  0
  129.6183  132.0500  157.9311 C   0  0  0  0  0  0  0  0  0  0  0  0
  129.5499  133.0723  158.8460 N   0  0  0  0  0  0  0  0  0  0  0  0
  129.1942  133.0145  159.7466 H   0  0  0  0  0  0  0  0  0  0  0  0
  130.0733  134.1813  158.2558 C   0  0  0  0  0  0  0  0  0  0  0  0
  130.1894  135.4291  158.8439 N   0  0  0  0  0  0  0  0  0  0  0  0
  129.7269  135.6369  160.2184 C   0  0  2  0  0  0  0  0  0  0  0  0
  130.2757  134.9771  160.8902 H   0  0  0  0  0  0  0  0  0  0  0  0
  128.2541  135.3296  160.3046 C   0  0  0  0  0  0  0  0  0  0  0  0
  127.4410  135.5275  159.2074 C   0  0  0  0  0  0  0  0  0  0  0  0
  126.0890  135.2453  159.2848 C   0  0  0  0  0  0  0  0  0  0  0  0
  125.5432  134.7634  160.4614 C   0  0  0  0  0  0  0  0  0  0  0  0
  126.3455  134.5609  161.5652 C   0  0  0  0  0  0  0  0  0  0  0  0
  127.7109  134.8389  161.4920 C   0  0  0  0  0  0  0  0  0  0  0  0
  128.5781  134.6191  162.6707 C   0  0  0  0  0  0  0  0  0  0  0  0
  129.6537  133.7793  162.7392 C   0  0  0  0  0  0  0  0  0  0  0  0
  130.1897  133.8748  164.0235 C   0  0  0  0  0  0  0  0  0  0  0  0
  129.4721  134.7251  164.7130 N   0  0  0  0  0  0  0  0  0  0  0  0
  128.4484  135.2127  163.8906 N   0  0  0  0  0  0  0  0  0  0  0  0
  127.4230  136.1866  164.2730 C   0  0  0  0  0  0  0  0  0  0  0  0
  128.0752  137.3407  165.0370 C   0  0  0  0  0  0  0  0  0  0  0  0
  129.9649  137.0707  160.6171 C   0  0  0  0  0  0  0  0  0  0  0  0
  128.9189  137.8628  160.9795 C   0  0  0  0  0  0  0  0  0  0  0  0
  129.1197  139.1903  161.3516 C   0  0  0  0  0  0  0  0  0  0  0  0
  130.3676  139.7340  161.3633 C   0  0  0  0  0  0  0  0  0  0  0  0
  131.4720  138.9472  160.9953 C   0  0  0  0  0  0  0  0  0  0  0  0
  132.7754  139.4731  160.9955 C   0  0  0  0  0  0  0  0  0  0  0  0
  133.8230  138.6763  160.6491 C   0  0  0  0  0  0  0  0  0  0  0  0
  133.6221  137.3482  160.2766 C   0  0  0  0  0  0  0  0  0  0  0  0
  132.3739  136.8065  160.2596 C   0  0  0  0  0  0  0  0  0  0  0  0
  131.2684  137.5951  160.6219 C   0  0  0  0  0  0  0  0  0  0  0  0
  130.4545  133.8717  157.0406 N   0  0  0  0  0  0  0  0  0  0  0  0
  130.8645  134.4812  156.4072 H   0  0  0  0  0  0  0  0  0  0  0  0
  130.4391  132.4915  154.3297 C   0  0  0  0  0  0  0  0  0  0  0  0
  130.6946  131.7981  153.1643 C   0  0  0  0  0  0  0  0  0  0  0  0
  129.2592  129.9894  151.1501 H   0  0  0  0  0  0  0  0  0  0  0  0
  130.1317  128.6126  150.4350 H   0  0  0  0  0  0  0  0  0  0  0  0
  129.4644  128.4858  152.0803 H   0  0  0  0  0  0  0  0  0  0  0  0
  131.9152  128.8574  152.1402 H   0  0  0  0  0  0  0  0  0  0  0  0
  131.7101  130.3609  151.2098 H   0  0  0  0  0  0  0  0  0  0  0  0
  131.1842  128.7133  154.4468 H   0  0  0  0  0  0  0  0  0  0  0  0
  130.7416  129.9344  156.5360 H   0  0  0  0  0  0  0  0  0  0  0  0
  129.2870  131.0325  158.0773 H   0  0  0  0  0  0  0  0  0  0  0  0
  130.5771  136.1658  158.3459 H   0  0  0  0  0  0  0  0  0  0  0  0
  127.8610  135.9038  158.2863 H   0  0  0  0  0  0  0  0  0  0  0  0
  125.4568  135.4017  158.4232 H   0  0  0  0  0  0  0  0  0  0  0  0
  124.4869  134.5451  160.5157 H   0  0  0  0  0  0  0  0  0  0  0  0
  125.9184  134.1846  162.4830 H   0  0  0  0  0  0  0  0  0  0  0  0
  130.0242  133.1541  161.9403 H   0  0  0  0  0  0  0  0  0  0  0  0
  131.0499  133.3340  164.3893 H   0  0  0  0  0  0  0  0  0  0  0  0
  126.9366  136.5728  163.3771 H   0  0  0  0  0  0  0  0  0  0  0  0
  126.6816  135.7028  164.9089 H   0  0  0  0  0  0  0  0  0  0  0  0
  127.3122  138.0653  165.3215 H   0  0  0  0  0  0  0  0  0  0  0  0
  128.5615  136.9544  165.9328 H   0  0  0  0  0  0  0  0  0  0  0  0
  128.8165  137.8244  164.4011 H   0  0  0  0  0  0  0  0  0  0  0  0
  127.9184  137.4561  160.9785 H   0  0  0  0  0  0  0  0  0  0  0  0
  128.2724  139.7974  161.6345 H   0  0  0  0  0  0  0  0  0  0  0  0
  130.5080  140.7648  161.6536 H   0  0  0  0  0  0  0  0  0  0  0  0
  132.9462  140.5005  161.2812 H   0  0  0  0  0  0  0  0  0  0  0  0
  134.8240  139.0817  160.6544 H   0  0  0  0  0  0  0  0  0  0  0  0
  134.4699  136.7401  159.9977 H   0  0  0  0  0  0  0  0  0  0  0  0
  132.2336  135.7756  159.9695 H   0  0  0  0  0  0  0  0  0  0  0  0
  130.2272  133.5499  154.2941 H   0  0  0  0  0  0  0  0  0  0  0  0
  130.6835  132.3149  152.2161 H   0  0  0  0  0  0  0  0  0  0  0  0
  1  2  1  0
  1 42  1  0
  1 43  1  0
  1 44  1  0
  2  3  1  0
  2 45  1  0
  2 46  1  0
  3 41  2  0
  3  4  1  0
  4  5  2  0
  4 47  1  0
  5  6  1  0
  5 48  1  0
  6  7  1  0
  6 40  2  0
  7 38  1  0
  7  8  2  0
  8  9  1  0
  8 49  1  0
  9 10  1  0
  9 11  1  0
 11 12  1  0
 11 38  2  0
 12 13  1  0
 12 50  1  0
 13 14  1  1
 13 15  1  0
 13 28  1  0
 15 20  1  0
 15 16  2  0
 16 17  1  0
 16 51  1  0
 17 18  2  0
 17 52  1  0
 18 19  1  0
 18 53  1  0
 19 20  2  0
 19 54  1  0
 20 21  1  0
 21 25  1  0
 21 22  2  0
 22 23  1  0
 22 55  1  0
 23 24  2  0
 23 56  1  0
 24 25  1  0
 25 26  1  0
 26 27  1  0
 26 57  1  0
 26 58  1  0
 27 59  1  0
 27 60  1  0
 27 61  1  0
 28 37  1  0
 28 29  2  0
 29 30  1  0
 29 62  1  0
 30 31  2  0
 30 63  1  0
 31 32  1  0
 31 64  1  0
 32 37  2  0
 32 33  1  0
 33 34  2  0
 33 65  1  0
 34 35  1  0
 34 66  1  0
 35 36  2  0
 35 67  1  0
 36 37  1  0
 36 68  1  0
 38 39  1  0
 40 41  1  0
 40 69  1  0
 41 70  1  0
M  CHG  1  38   1
M  END
>  <DOCK_score>  (1) 
-64.724503

>  <SMILES>  (1) 
CCc1ccc(-c2c[nH]c(N[C@H](c3ccccc3-c3ccnn3CC)c3cccc4ccccc34)[nH+]2)cc1

$$$$
