CCc1ccc(-c2c[nH]c(N[C@@H](Cc3ccc(C)cc3)c3ccc(C)cc3)[nH+]2)cc1
     RDKit          3D

 60 63  0  0  1  0  0  0  0  0999 V2000
  130.4712  130.4394  151.0712 C   0  0  0  0  0  0  0  0  0  0  0  0
  131.2148  129.6768  152.1685 C   0  0  0  0  0  0  0  0  0  0  0  0
  131.0085  130.3700  153.4907 C   0  0  0  0  0  0  0  0  0  0  0  0
  130.2375  131.5163  153.5545 C   0  0  0  0  0  0  0  0  0  0  0  0
  130.0404  132.1521  154.7634 C   0  0  0  0  0  0  0  0  0  0  0  0
  130.6295  131.6433  155.9196 C   0  0  0  0  0  0  0  0  0  0  0  0
  130.4258  132.3255  157.2210 C   0  0  0  0  0  0  0  0  0  0  0  0
  129.8629  131.7809  158.3280 C   0  0  0  0  0  0  0  0  0  0  0  0
  129.8715  132.7527  159.2988 N   0  0  0  0  0  0  0  0  0  0  0  0
  129.5344  132.6636  160.2039 H   0  0  0  0  0  0  0  0  0  0  0  0
  130.4401  133.8638  158.7562 C   0  0  0  0  0  0  0  0  0  0  0  0
  130.6373  135.0690  159.4081 N   0  0  0  0  0  0  0  0  0  0  0  0
  130.2191  135.2239  160.8036 C   0  0  1  0  0  0  0  0  0  0  0  0
  130.7472  134.4997  161.4237 H   0  0  0  0  0  0  0  0  0  0  0  0
  130.5484  136.6400  161.2803 C   0  0  0  0  0  0  0  0  0  0  0  0
  132.0094  136.7215  161.6408 C   0  0  0  0  0  0  0  0  0  0  0  0
  132.9391  137.0772  160.6817 C   0  0  0  0  0  0  0  0  0  0  0  0
  134.2787  137.1572  161.0137 C   0  0  0  0  0  0  0  0  0  0  0  0
  134.6898  136.8704  162.3020 C   0  0  0  0  0  0  0  0  0  0  0  0
  136.1508  136.9516  162.6624 C   0  0  0  0  0  0  0  0  0  0  0  0
  133.7606  136.5097  163.2597 C   0  0  0  0  0  0  0  0  0  0  0  0
  132.4204  136.4353  162.9293 C   0  0  0  0  0  0  0  0  0  0  0  0
  128.7342  134.9902  160.9118 C   0  0  0  0  0  0  0  0  0  0  0  0
  127.9074  135.2925  159.8460 C   0  0  0  0  0  0  0  0  0  0  0  0
  126.5460  135.0730  159.9435 C   0  0  0  0  0  0  0  0  0  0  0  0
  126.0101  134.5619  161.1107 C   0  0  0  0  0  0  0  0  0  0  0  0
  124.5253  134.3284  161.2192 C   0  0  0  0  0  0  0  0  0  0  0  0
  126.8363  134.2645  162.1784 C   0  0  0  0  0  0  0  0  0  0  0  0
  128.1983  134.4786  162.0788 C   0  0  0  0  0  0  0  0  0  0  0  0
  130.7753  133.6027  157.5162 N   0  0  0  0  0  0  0  0  0  0  0  0
  131.2027  134.2242  156.9064 H   0  0  0  0  0  0  0  0  0  0  0  0
  131.4101  130.4908  155.8486 C   0  0  0  0  0  0  0  0  0  0  0  0
  131.5957  129.8601  154.6352 C   0  0  0  0  0  0  0  0  0  0  0  0
  130.8560  131.4573  151.0116 H   0  0  0  0  0  0  0  0  0  0  0  0
  130.6204  129.9378  150.1149 H   0  0  0  0  0  0  0  0  0  0  0  0
  129.4068  130.4664  151.3050 H   0  0  0  0  0  0  0  0  0  0  0  0
  130.8302  128.6582  152.2285 H   0  0  0  0  0  0  0  0  0  0  0  0
  132.2794  129.6491  151.9351 H   0  0  0  0  0  0  0  0  0  0  0  0
  129.7856  131.9123  152.6572 H   0  0  0  0  0  0  0  0  0  0  0  0
  129.4343  133.0447  154.8128 H   0  0  0  0  0  0  0  0  0  0  0  0
  129.4805  130.7757  158.4272 H   0  0  0  0  0  0  0  0  0  0  0  0
  131.0527  135.8108  158.9410 H   0  0  0  0  0  0  0  0  0  0  0  0
  130.3303  137.3515  160.4841 H   0  0  0  0  0  0  0  0  0  0  0  0
  129.9444  136.8782  162.1560 H   0  0  0  0  0  0  0  0  0  0  0  0
  132.6185  137.2966  159.6739 H   0  0  0  0  0  0  0  0  0  0  0  0
  135.0046  137.4394  160.2654 H   0  0  0  0  0  0  0  0  0  0  0  0
  136.6213  135.9833  162.4920 H   0  0  0  0  0  0  0  0  0  0  0  0
  136.6364  137.7056  162.0430 H   0  0  0  0  0  0  0  0  0  0  0  0
  136.2513  137.2246  163.7129 H   0  0  0  0  0  0  0  0  0  0  0  0
  134.0818  136.2856  164.2663 H   0  0  0  0  0  0  0  0  0  0  0  0
  131.6945  136.1530  163.6774 H   0  0  0  0  0  0  0  0  0  0  0  0
  128.3255  135.6963  158.9358 H   0  0  0  0  0  0  0  0  0  0  0  0
  125.9005  135.3050  159.1092 H   0  0  0  0  0  0  0  0  0  0  0  0
  124.0437  135.2262  161.6066 H   0  0  0  0  0  0  0  0  0  0  0  0
  124.1212  134.0958  160.2338 H   0  0  0  0  0  0  0  0  0  0  0  0
  124.3371  133.4944  161.8952 H   0  0  0  0  0  0  0  0  0  0  0  0
  126.4177  133.8651  163.0903 H   0  0  0  0  0  0  0  0  0  0  0  0
  128.8438  134.2466  162.9131 H   0  0  0  0  0  0  0  0  0  0  0  0
  131.8691  130.0924  156.7414 H   0  0  0  0  0  0  0  0  0  0  0  0
  132.2007  128.9672  154.5790 H   0  0  0  0  0  0  0  0  0  0  0  0
  1  2  1  0
  1 34  1  0
  1 35  1  0
  1 36  1  0
  2  3  1  0
  2 37  1  0
  2 38  1  0
  3 33  2  0
  3  4  1  0
  4  5  2  0
  4 39  1  0
  5  6  1  0
  5 40  1  0
  6  7  1  0
  6 32  2  0
  7 30  1  0
  7  8  2  0
  8  9  1  0
  8 41  1  0
  9 10  1  0
  9 11  1  0
 11 12  1  0
 11 30  2  0
 12 13  1  0
 12 42  1  0
 13 14  1  1
 13 15  1  0
 13 23  1  0
 15 16  1  0
 15 43  1  0
 15 44  1  0
 16 22  1  0
 16 17  2  0
 17 18  1  0
 17 45  1  0
 18 19  2  0
 18 46  1  0
 19 20  1  0
 19 21  1  0
 20 47  1  0
 20 48  1  0
 20 49  1  0
 21 22  2  0
 21 50  1  0
 22 51  1  0
 23 29  1  0
 23 24  2  0
 24 25  1  0
 24 52  1  0
 25 26  2  0
 25 53  1  0
 26 27  1  0
 26 28  1  0
 27 54  1  0
 27 55  1  0
 27 56  1  0
 28 29  2  0
 28 57  1  0
 29 58  1  0
 30 31  1  0
 32 33  1  0
 32 59  1  0
 33 60  1  0
M  CHG  1  30   1
M  END
>  <DOCK_score>  (1) 
-61.147373

>  <SMILES>  (1) 
CCc1ccc(-c2c[nH]c(N[C@@H](Cc3ccc(C)cc3)c3ccc(C)cc3)[nH+]2)cc1

$$$$
