CCc1ccc(-c2c[nH]c(N[C@H](CSc3ccccc3)Cc3ccnn3C)[nH+]2)cc1
     RDKit          3D

 58 61  0  0  1  0  0  0  0  0999 V2000
  130.4161  129.3148  151.5402 C   0  0  0  0  0  0  0  0  0  0  0  0
  131.6699  129.7562  152.2979 C   0  0  0  0  0  0  0  0  0  0  0  0
  131.2674  130.5150  153.5361 C   0  0  0  0  0  0  0  0  0  0  0  0
  131.0677  129.8370  154.7253 C   0  0  0  0  0  0  0  0  0  0  0  0
  130.7037  130.5274  155.8634 C   0  0  0  0  0  0  0  0  0  0  0  0
  130.5270  131.9089  155.8107 C   0  0  0  0  0  0  0  0  0  0  0  0
  130.1310  132.6558  157.0295 C   0  0  0  0  0  0  0  0  0  0  0  0
  129.3866  132.1726  158.0549 C   0  0  0  0  0  0  0  0  0  0  0  0
  129.2596  133.1900  158.9693 N   0  0  0  0  0  0  0  0  0  0  0  0
  128.7798  133.1489  159.8113 H   0  0  0  0  0  0  0  0  0  0  0  0
  129.9306  134.2660  158.4754 C   0  0  0  0  0  0  0  0  0  0  0  0
  130.0452  135.4987  159.0950 N   0  0  0  0  0  0  0  0  0  0  0  0
  129.4113  135.7264  160.3960 C   0  0  2  0  0  0  0  0  0  0  0  0
  129.5325  134.8402  161.0191 H   0  0  0  0  0  0  0  0  0  0  0  0
  127.9212  136.0086  160.1949 C   0  0  0  0  0  0  0  0  0  0  0  0
  127.0337  135.7082  161.7482 S   0  0  0  0  0  0  0  0  0  0  0  0
  126.5917  134.0068  161.6297 C   0  0  0  0  0  0  0  0  0  0  0  0
  127.0504  133.1003  162.5780 C   0  0  0  0  0  0  0  0  0  0  0  0
  126.6979  131.7684  162.4846 C   0  0  0  0  0  0  0  0  0  0  0  0
  125.8979  131.3345  161.4434 C   0  0  0  0  0  0  0  0  0  0  0  0
  125.4438  132.2327  160.4949 C   0  0  0  0  0  0  0  0  0  0  0  0
  125.7883  133.5669  160.5846 C   0  0  0  0  0  0  0  0  0  0  0  0
  130.0696  136.9256  161.0812 C   0  0  0  0  0  0  0  0  0  0  0  0
  131.5374  136.6475  161.2793 C   0  0  0  0  0  0  0  0  0  0  0  0
  132.5304  136.9457  160.4097 C   0  0  0  0  0  0  0  0  0  0  0  0
  133.7383  136.5232  160.9744 C   0  0  0  0  0  0  0  0  0  0  0  0
  133.4798  135.9904  162.1411 N   0  0  0  0  0  0  0  0  0  0  0  0
  132.0977  136.0618  162.3582 N   0  0  0  0  0  0  0  0  0  0  0  0
  131.3860  135.5823  163.5455 C   0  0  0  0  0  0  0  0  0  0  0  0
  130.4542  133.9414  157.3185 N   0  0  0  0  0  0  0  0  0  0  0  0
  130.9863  134.5273  156.7577 H   0  0  0  0  0  0  0  0  0  0  0  0
  130.7245  132.5861  154.6086 C   0  0  0  0  0  0  0  0  0  0  0  0
  131.0934  131.8861  153.4780 C   0  0  0  0  0  0  0  0  0  0  0  0
  129.8356  130.1924  151.2559 H   0  0  0  0  0  0  0  0  0  0  0  0
  130.7073  128.7659  150.6446 H   0  0  0  0  0  0  0  0  0  0  0  0
  129.8124  128.6715  152.1803 H   0  0  0  0  0  0  0  0  0  0  0  0
  132.2505  128.8785  152.5823 H   0  0  0  0  0  0  0  0  0  0  0  0
  132.2738  130.3995  151.6578 H   0  0  0  0  0  0  0  0  0  0  0  0
  131.2006  128.7659  154.7639 H   0  0  0  0  0  0  0  0  0  0  0  0
  130.5525  129.9977  156.7924 H   0  0  0  0  0  0  0  0  0  0  0  0
  128.9726  131.1785  158.1369 H   0  0  0  0  0  0  0  0  0  0  0  0
  130.5450  136.2117  158.6677 H   0  0  0  0  0  0  0  0  0  0  0  0
  127.7855  137.0473  159.8939 H   0  0  0  0  0  0  0  0  0  0  0  0
  127.5283  135.3513  159.4191 H   0  0  0  0  0  0  0  0  0  0  0  0
  127.6787  133.4378  163.3891 H   0  0  0  0  0  0  0  0  0  0  0  0
  127.0509  131.0641  163.2234 H   0  0  0  0  0  0  0  0  0  0  0  0
  125.6272  130.2915  161.3707 H   0  0  0  0  0  0  0  0  0  0  0  0
  124.8195  131.8902  159.6830 H   0  0  0  0  0  0  0  0  0  0  0  0
  125.4340  134.2677  159.8430 H   0  0  0  0  0  0  0  0  0  0  0  0
  129.9486  137.8116  160.4580 H   0  0  0  0  0  0  0  0  0  0  0  0
  129.5981  137.0949  162.0492 H   0  0  0  0  0  0  0  0  0  0  0  0
  132.4113  137.4255  159.4495 H   0  0  0  0  0  0  0  0  0  0  0  0
  134.7156  136.6203  160.5252 H   0  0  0  0  0  0  0  0  0  0  0  0
  131.0949  134.5421  163.3994 H   0  0  0  0  0  0  0  0  0  0  0  0
  132.0382  135.6582  164.4156 H   0  0  0  0  0  0  0  0  0  0  0  0
  130.4951  136.1900  163.7052 H   0  0  0  0  0  0  0  0  0  0  0  0
  130.5887  133.6565  154.5620 H   0  0  0  0  0  0  0  0  0  0  0  0
  131.2464  132.4098  152.5459 H   0  0  0  0  0  0  0  0  0  0  0  0
  1  2  1  0
  1 34  1  0
  1 35  1  0
  1 36  1  0
  2  3  1  0
  2 37  1  0
  2 38  1  0
  3 33  2  0
  3  4  1  0
  4  5  2  0
  4 39  1  0
  5  6  1  0
  5 40  1  0
  6  7  1  0
  6 32  2  0
  7 30  1  0
  7  8  2  0
  8  9  1  0
  8 41  1  0
  9 10  1  0
  9 11  1  0
 11 12  1  0
 11 30  2  0
 12 13  1  0
 12 42  1  0
 13 14  1  1
 13 15  1  0
 13 23  1  0
 15 16  1  0
 15 43  1  0
 15 44  1  0
 16 17  1  0
 17 22  1  0
 17 18  2  0
 18 19  1  0
 18 45  1  0
 19 20  2  0
 19 46  1  0
 20 21  1  0
 20 47  1  0
 21 22  2  0
 21 48  1  0
 22 49  1  0
 23 24  1  0
 23 50  1  0
 23 51  1  0
 24 28  1  0
 24 25  2  0
 25 26  1  0
 25 52  1  0
 26 27  2  0
 26 53  1  0
 27 28  1  0
 28 29  1  0
 29 54  1  0
 29 55  1  0
 29 56  1  0
 30 31  1  0
 32 33  1  0
 32 57  1  0
 33 58  1  0
M  CHG  1  30   1
M  END
>  <DOCK_score>  (1) 
-59.453552

>  <SMILES>  (1) 
CCc1ccc(-c2c[nH]c(N[C@H](CSc3ccccc3)Cc3ccnn3C)[nH+]2)cc1

$$$$
