Nc1ccc(-c2c[nH]c(N[C@@H](C(=O)NC3CC3)c3ccccc3)[nH+]2)cc1
     RDKit          3D

 48 51  0  0  1  0  0  0  0  0999 V2000
  131.7281  129.5989  152.0536 N   0  0  0  0  0  0  0  0  0  0  0  0
  131.3607  130.2527  153.2321 C   0  0  0  0  0  0  0  0  0  0  0  0
  130.5933  131.4100  153.1732 C   0  0  0  0  0  0  0  0  0  0  0  0
  130.2295  132.0570  154.3353 C   0  0  0  0  0  0  0  0  0  0  0  0
  130.6319  131.5495  155.5698 C   0  0  0  0  0  0  0  0  0  0  0  0
  130.2417  132.2438  156.8214 C   0  0  0  0  0  0  0  0  0  0  0  0
  129.5089  131.7146  157.8321 C   0  0  0  0  0  0  0  0  0  0  0  0
  129.3784  132.6960  158.7861 N   0  0  0  0  0  0  0  0  0  0  0  0
  128.9028  132.6193  159.6280 H   0  0  0  0  0  0  0  0  0  0  0  0
  130.0401  133.7944  158.3312 C   0  0  0  0  0  0  0  0  0  0  0  0
  130.1498  135.0031  158.9972 N   0  0  0  0  0  0  0  0  0  0  0  0
  129.0818  135.4420  159.8990 C   0  0  1  0  0  0  0  0  0  0  0  0
  128.9580  134.7112  160.6983 H   0  0  0  0  0  0  0  0  0  0  0  0
  129.4436  136.7791  160.4928 C   0  0  0  0  0  0  0  0  0  0  0  0
  130.4903  137.3129  160.1920 O   0  0  0  0  0  0  0  0  0  0  0  0
  128.6040  137.3818  161.3577 N   0  0  0  0  0  0  0  0  0  0  0  0
  128.9556  138.6815  161.9349 C   0  0  0  0  0  0  0  0  0  0  0  0
  129.8269  138.6837  163.1925 C   0  0  0  0  0  0  0  0  0  0  0  0
  128.3426  139.0421  163.2895 C   0  0  0  0  0  0  0  0  0  0  0  0
  127.7929  135.5667  159.1282 C   0  0  0  0  0  0  0  0  0  0  0  0
  126.5844  135.3466  159.7623 C   0  0  0  0  0  0  0  0  0  0  0  0
  125.4019  135.4651  159.0562 C   0  0  0  0  0  0  0  0  0  0  0  0
  125.4284  135.7950  157.7141 C   0  0  0  0  0  0  0  0  0  0  0  0
  126.6371  136.0102  157.0789 C   0  0  0  0  0  0  0  0  0  0  0  0
  127.8194  135.8958  157.7859 C   0  0  0  0  0  0  0  0  0  0  0  0
  130.5572  133.5193  157.1584 N   0  0  0  0  0  0  0  0  0  0  0  0
  131.0785  134.1317  156.6161 H   0  0  0  0  0  0  0  0  0  0  0  0
  131.4063  130.3919  155.6261 C   0  0  0  0  0  0  0  0  0  0  0  0
  131.7628  129.7447  154.4617 C   0  0  0  0  0  0  0  0  0  0  0  0
  131.4478  129.9527  151.1950 H   0  0  0  0  0  0  0  0  0  0  0  0
  132.2638  128.7912  152.0937 H   0  0  0  0  0  0  0  0  0  0  0  0
  130.2821  131.8030  152.2167 H   0  0  0  0  0  0  0  0  0  0  0  0
  129.6328  132.9561  154.2892 H   0  0  0  0  0  0  0  0  0  0  0  0
  129.1020  130.7151  157.8771 H   0  0  0  0  0  0  0  0  0  0  0  0
  130.9335  135.5594  158.8669 H   0  0  0  0  0  0  0  0  0  0  0  0
  127.7668  136.9548  161.5981 H   0  0  0  0  0  0  0  0  0  0  0  0
  129.1035  139.4895  161.2183 H   0  0  0  0  0  0  0  0  0  0  0  0
  130.1384  137.7181  163.5905 H   0  0  0  0  0  0  0  0  0  0  0  0
  130.5484  139.4931  163.3035 H   0  0  0  0  0  0  0  0  0  0  0  0
  128.0876  140.0873  163.4643 H   0  0  0  0  0  0  0  0  0  0  0  0
  127.6777  138.3122  163.7514 H   0  0  0  0  0  0  0  0  0  0  0  0
  126.5640  135.0850  160.8099 H   0  0  0  0  0  0  0  0  0  0  0  0
  124.4575  135.2974  159.5526 H   0  0  0  0  0  0  0  0  0  0  0  0
  124.5046  135.8851  157.1619 H   0  0  0  0  0  0  0  0  0  0  0  0
  126.6578  136.2679  156.0303 H   0  0  0  0  0  0  0  0  0  0  0  0
  128.7638  136.0638  157.2895 H   0  0  0  0  0  0  0  0  0  0  0  0
  131.7232  129.9995  156.5811 H   0  0  0  0  0  0  0  0  0  0  0  0
  132.3587  128.8450  154.5051 H   0  0  0  0  0  0  0  0  0  0  0  0
  1  2  1  0
  1 30  1  0
  1 31  1  0
  2 29  2  0
  2  3  1  0
  3  4  2  0
  3 32  1  0
  4  5  1  0
  4 33  1  0
  5  6  1  0
  5 28  2  0
  6 26  1  0
  6  7  2  0
  7  8  1  0
  7 34  1  0
  8  9  1  0
  8 10  1  0
 10 11  1  0
 10 26  2  0
 11 12  1  0
 11 35  1  0
 12 13  1  1
 12 14  1  0
 12 20  1  0
 14 15  2  0
 14 16  1  0
 16 17  1  0
 16 36  1  0
 17 19  1  0
 17 18  1  0
 17 37  1  0
 18 19  1  0
 18 38  1  0
 18 39  1  0
 19 40  1  0
 19 41  1  0
 20 25  1  0
 20 21  2  0
 21 22  1  0
 21 42  1  0
 22 23  2  0
 22 43  1  0
 23 24  1  0
 23 44  1  0
 24 25  2  0
 24 45  1  0
 25 46  1  0
 26 27  1  0
 28 29  1  0
 28 47  1  0
 29 48  1  0
M  CHG  1  26   1
M  END
>  <DOCK_score>  (1) 
-56.21236

>  <SMILES>  (1) 
Nc1ccc(-c2c[nH]c(N[C@@H](C(=O)NC3CC3)c3ccccc3)[nH+]2)cc1

$$$$
