Oc1ccc(-c2c[nH]c(N[C@@H](CC3=CC4C=CC3CC4)c3ccccc3)[nH+]2)cc1
     RDKit          3D

 55 59  0  0  1  0  0  0  0  0999 V2000
  131.6793  129.4933  151.5881 O   0  0  0  0  0  0  0  0  0  0  0  0
  131.3268  130.1437  152.7283 C   0  0  0  0  0  0  0  0  0  0  0  0
  130.5716  131.3062  152.6580 C   0  0  0  0  0  0  0  0  0  0  0  0
  130.2124  131.9679  153.8138 C   0  0  0  0  0  0  0  0  0  0  0  0
  130.6088  131.4682  155.0530 C   0  0  0  0  0  0  0  0  0  0  0  0
  130.2247  132.1777  156.2979 C   0  0  0  0  0  0  0  0  0  0  0  0
  129.4888  131.6642  157.3145 C   0  0  0  0  0  0  0  0  0  0  0  0
  129.3708  132.6541  158.2609 N   0  0  0  0  0  0  0  0  0  0  0  0
  128.8983  132.5880  159.1055 H   0  0  0  0  0  0  0  0  0  0  0  0
  130.0387  133.7437  157.7939 C   0  0  0  0  0  0  0  0  0  0  0  0
  130.1611  134.9568  158.4497 N   0  0  0  0  0  0  0  0  0  0  0  0
  129.1013  135.4112  159.3532 C   0  0  1  0  0  0  0  0  0  0  0  0
  128.9759  134.6877  160.1589 H   0  0  0  0  0  0  0  0  0  0  0  0
  129.4823  136.7704  159.9433 C   0  0  0  0  0  0  0  0  0  0  0  0
  130.7740  136.6417  160.7088 C   0  0  0  0  0  0  0  0  0  0  0  0
  131.8738  137.3314  160.4049 C   0  0  0  0  0  0  0  0  0  0  0  0
  133.0567  137.0338  161.3221 C   0  0  2  0  0  0  0  0  0  0  0  0
  133.2522  135.5207  161.2857 C   0  0  0  0  0  0  0  0  0  0  0  0
  132.1530  134.8314  161.5894 C   0  0  0  0  0  0  0  0  0  0  0  0
  130.9444  135.7144  161.9088 C   0  0  1  0  0  0  0  0  0  0  0  0
  131.3449  136.6026  163.1003 C   0  0  0  0  0  0  0  0  0  0  0  0
  132.6133  137.4034  162.7489 C   0  0  0  0  0  0  0  0  0  0  0  0
  127.8096  135.5399  158.5879 C   0  0  0  0  0  0  0  0  0  0  0  0
  126.6026  135.3343  159.2297 C   0  0  0  0  0  0  0  0  0  0  0  0
  125.4174  135.4562  158.5286 C   0  0  0  0  0  0  0  0  0  0  0  0
  125.4396  135.7758  157.1839 C   0  0  0  0  0  0  0  0  0  0  0  0
  126.6468  135.9763  156.5409 C   0  0  0  0  0  0  0  0  0  0  0  0
  127.8318  135.8582  157.2429 C   0  0  0  0  0  0  0  0  0  0  0  0
  130.5526  133.4533  156.6234 N   0  0  0  0  0  0  0  0  0  0  0  0
  131.0809  134.0552  156.0762 H   0  0  0  0  0  0  0  0  0  0  0  0
  131.3672  130.3006  155.1203 C   0  0  0  0  0  0  0  0  0  0  0  0
  131.7232  129.6435  153.9609 C   0  0  0  0  0  0  0  0  0  0  0  0
  131.3582  129.9163  150.7793 H   0  0  0  0  0  0  0  0  0  0  0  0
  130.2610  131.6904  151.6976 H   0  0  0  0  0  0  0  0  0  0  0  0
  129.6245  132.8721  153.7584 H   0  0  0  0  0  0  0  0  0  0  0  0
  129.0745  130.6684  157.3697 H   0  0  0  0  0  0  0  0  0  0  0  0
  130.9486  135.5059  158.3109 H   0  0  0  0  0  0  0  0  0  0  0  0
  129.6079  137.4939  159.1378 H   0  0  0  0  0  0  0  0  0  0  0  0
  128.6936  137.1085  160.6156 H   0  0  0  0  0  0  0  0  0  0  0  0
  131.9228  138.0348  159.5867 H   0  0  0  0  0  0  0  0  0  0  0  0
  133.9554  137.5712  161.0198 H   0  0  0  0  0  0  0  0  0  0  0  0
  134.1930  135.0526  161.0367 H   0  0  0  0  0  0  0  0  0  0  0  0
  132.1194  133.7522  161.6101 H   0  0  0  0  0  0  0  0  0  0  0  0
  130.0465  135.1284  162.1053 H   0  0  0  0  0  0  0  0  0  0  0  0
  130.5351  137.2969  163.3243 H   0  0  0  0  0  0  0  0  0  0  0  0
  131.5380  135.9765  163.9714 H   0  0  0  0  0  0  0  0  0  0  0  0
  133.4066  137.1511  163.4526 H   0  0  0  0  0  0  0  0  0  0  0  0
  132.4088  138.4727  162.8002 H   0  0  0  0  0  0  0  0  0  0  0  0
  126.5854  135.0813  160.2795 H   0  0  0  0  0  0  0  0  0  0  0  0
  124.4743  135.2992  159.0309 H   0  0  0  0  0  0  0  0  0  0  0  0
  124.5138  135.8684  156.6355 H   0  0  0  0  0  0  0  0  0  0  0  0
  126.6641  136.2256  155.4902 H   0  0  0  0  0  0  0  0  0  0  0  0
  128.7750  136.0149  156.7406 H   0  0  0  0  0  0  0  0  0  0  0  0
  131.6761  129.9112  156.0790 H   0  0  0  0  0  0  0  0  0  0  0  0
  132.3108  128.7389  154.0123 H   0  0  0  0  0  0  0  0  0  0  0  0
  1  2  1  0
  1 33  1  0
  2 32  2  0
  2  3  1  0
  3  4  2  0
  3 34  1  0
  4  5  1  0
  4 35  1  0
  5  6  1  0
  5 31  2  0
  6 29  1  0
  6  7  2  0
  7  8  1  0
  7 36  1  0
  8  9  1  0
  8 10  1  0
 10 11  1  0
 10 29  2  0
 11 12  1  0
 11 37  1  0
 12 13  1  1
 12 14  1  0
 12 23  1  0
 14 15  1  0
 14 38  1  0
 14 39  1  0
 15 20  1  0
 15 16  2  0
 16 17  1  0
 16 40  1  0
 17 22  1  0
 17 18  1  0
 17 41  1  6
 18 19  2  0
 18 42  1  0
 19 20  1  0
 19 43  1  0
 20 21  1  0
 20 44  1  1
 21 22  1  0
 21 45  1  0
 21 46  1  0
 22 47  1  0
 22 48  1  0
 23 28  1  0
 23 24  2  0
 24 25  1  0
 24 49  1  0
 25 26  2  0
 25 50  1  0
 26 27  1  0
 26 51  1  0
 27 28  2  0
 27 52  1  0
 28 53  1  0
 29 30  1  0
 31 32  1  0
 31 54  1  0
 32 55  1  0
M  CHG  1  29   1
M  END
>  <DOCK_score>  (1) 
-60.409424

>  <SMILES>  (1) 
Oc1ccc(-c2c[nH]c(N[C@@H](CC3=CC4C=CC3CC4)c3ccccc3)[nH+]2)cc1

$$$$
