Cn1nccc1C[C@H](Nc1[nH]cc(-c2cccnc2)[nH+]1)c1cccc(O)c1
     RDKit          3D

 48 51  0  0  1  0  0  0  0  0999 V2000
  129.6966  136.6353  163.3583 C   0  0  0  0  0  0  0  0  0  0  0  0
  130.8086  136.8239  162.4235 N   0  0  0  0  0  0  0  0  0  0  0  0
  132.1689  136.8573  162.7568 N   0  0  0  0  0  0  0  0  0  0  0  0
  132.8544  137.0470  161.6586 C   0  0  0  0  0  0  0  0  0  0  0  0
  131.9546  137.1309  160.5909 C   0  0  0  0  0  0  0  0  0  0  0  0
  130.7041  136.9908  161.0884 C   0  0  0  0  0  0  0  0  0  0  0  0
  129.4237  137.0156  160.2938 C   0  0  0  0  0  0  0  0  0  0  0  0
  129.0779  135.5961  159.8396 C   0  0  2  0  0  0  0  0  0  0  0  0
  128.9512  134.9559  160.7126 H   0  0  0  0  0  0  0  0  0  0  0  0
  130.1614  135.0732  159.0036 N   0  0  0  0  0  0  0  0  0  0  0  0
  130.0724  133.7976  158.4730 C   0  0  0  0  0  0  0  0  0  0  0  0
  129.4212  132.7464  159.0412 N   0  0  0  0  0  0  0  0  0  0  0  0
  128.9399  132.7560  159.8835 H   0  0  0  0  0  0  0  0  0  0  0  0
  129.5686  131.6700  158.2005 C   0  0  0  0  0  0  0  0  0  0  0  0
  130.3122  132.0917  157.1479 C   0  0  0  0  0  0  0  0  0  0  0  0
  130.7305  131.2668  155.9883 C   0  0  0  0  0  0  0  0  0  0  0  0
  130.3405  131.6143  154.6916 C   0  0  0  0  0  0  0  0  0  0  0  0
  130.7620  130.8155  153.6430 C   0  0  0  0  0  0  0  0  0  0  0  0
  131.5385  129.7024  153.9101 C   0  0  0  0  0  0  0  0  0  0  0  0
  131.8865  129.3964  155.1449 N   0  0  0  0  0  0  0  0  0  0  0  0
  131.5139  130.1295  156.1742 C   0  0  0  0  0  0  0  0  0  0  0  0
  130.6064  133.4018  157.3434 N   0  0  0  0  0  0  0  0  0  0  0  0
  131.1287  133.9565  156.7432 H   0  0  0  0  0  0  0  0  0  0  0  0
  127.7976  135.6209  159.0450 C   0  0  0  0  0  0  0  0  0  0  0  0
  126.5829  135.4631  159.6871 C   0  0  0  0  0  0  0  0  0  0  0  0
  125.4067  135.4853  158.9611 C   0  0  0  0  0  0  0  0  0  0  0  0
  125.4419  135.6661  157.5918 C   0  0  0  0  0  0  0  0  0  0  0  0
  126.6590  135.8249  156.9454 C   0  0  0  0  0  0  0  0  0  0  0  0
  126.6963  136.0033  155.5987 O   0  0  0  0  0  0  0  0  0  0  0  0
  127.8378  135.8067  157.6769 C   0  0  0  0  0  0  0  0  0  0  0  0
  129.4824  135.5713  163.4582 H   0  0  0  0  0  0  0  0  0  0  0  0
  129.9668  137.0446  164.3317 H   0  0  0  0  0  0  0  0  0  0  0  0
  128.8131  137.1500  162.9804 H   0  0  0  0  0  0  0  0  0  0  0  0
  133.9295  137.1212  161.5880 H   0  0  0  0  0  0  0  0  0  0  0  0
  132.2124  137.2808  159.5531 H   0  0  0  0  0  0  0  0  0  0  0  0
  128.6176  137.4046  160.9156 H   0  0  0  0  0  0  0  0  0  0  0  0
  129.5504  137.6558  159.4207 H   0  0  0  0  0  0  0  0  0  0  0  0
  130.9412  135.6208  158.8218 H   0  0  0  0  0  0  0  0  0  0  0  0
  129.1718  130.6769  158.3511 H   0  0  0  0  0  0  0  0  0  0  0  0
  129.7295  132.4867  154.5123 H   0  0  0  0  0  0  0  0  0  0  0  0
  130.4837  131.0560  152.6275 H   0  0  0  0  0  0  0  0  0  0  0  0
  131.8653  129.0742  153.0947 H   0  0  0  0  0  0  0  0  0  0  0  0
  131.8188  129.8466  157.1709 H   0  0  0  0  0  0  0  0  0  0  0  0
  126.5533  135.3222  160.7574 H   0  0  0  0  0  0  0  0  0  0  0  0
  124.4593  135.3616  159.4648 H   0  0  0  0  0  0  0  0  0  0  0  0
  124.5227  135.6841  157.0251 H   0  0  0  0  0  0  0  0  0  0  0  0
  127.5886  136.1047  155.2400 H   0  0  0  0  0  0  0  0  0  0  0  0
  128.7865  135.9342  157.1766 H   0  0  0  0  0  0  0  0  0  0  0  0
  1  2  1  0
  1 31  1  0
  1 32  1  0
  1 33  1  0
  2  6  1  0
  2  3  1  0
  3  4  2  0
  4  5  1  0
  4 34  1  0
  5  6  2  0
  5 35  1  0
  6  7  1  0
  7  8  1  0
  7 36  1  0
  7 37  1  0
  8  9  1  1
  8 10  1  0
  8 24  1  0
 10 38  1  0
 11 10  1  0
 11 22  2  0
 11 12  1  0
 12 13  1  0
 12 14  1  0
 14 15  2  0
 14 39  1  0
 15 16  1  0
 15 22  1  0
 16 21  1  0
 16 17  2  0
 17 18  1  0
 17 40  1  0
 18 19  2  0
 18 41  1  0
 19 20  1  0
 19 42  1  0
 20 21  2  0
 21 43  1  0
 22 23  1  0
 24 30  1  0
 24 25  2  0
 25 26  1  0
 25 44  1  0
 26 27  2  0
 26 45  1  0
 27 28  1  0
 27 46  1  0
 28 29  1  0
 28 30  2  0
 29 47  1  0
 30 48  1  0
M  CHG  1  22   1
M  END
>  <DOCK_score>  (1) 
-56.219021

>  <SMILES>  (1) 
Cn1nccc1C[C@H](Nc1[nH]cc(-c2cccnc2)[nH+]1)c1cccc(O)c1

$$$$
