Nc1ccc(-c2c[nH]c(N[C@@H](SCc3ccccc3CCl)c3ccccc3)[nH+]2)cc1
     RDKit          3D

 54 57  0  0  1  0  0  0  0  0999 V2000
  131.0380  129.4770  152.5544 N   0  0  0  0  0  0  0  0  0  0  0  0
  130.8474  130.2517  153.7011 C   0  0  0  0  0  0  0  0  0  0  0  0
  130.0434  131.3849  153.6463 C   0  0  0  0  0  0  0  0  0  0  0  0
  129.8540  132.1521  154.7763 C   0  0  0  0  0  0  0  0  0  0  0  0
  130.4690  131.7908  155.9740 C   0  0  0  0  0  0  0  0  0  0  0  0
  130.2673  132.6148  157.1910 C   0  0  0  0  0  0  0  0  0  0  0  0
  129.7196  132.1939  158.3577 C   0  0  0  0  0  0  0  0  0  0  0  0
  129.7240  133.2713  159.2118 N   0  0  0  0  0  0  0  0  0  0  0  0
  129.3953  133.2826  160.1243 H   0  0  0  0  0  0  0  0  0  0  0  0
  130.2751  134.3188  158.5404 C   0  0  0  0  0  0  0  0  0  0  0  0
  130.4632  135.5929  159.0483 N   0  0  0  0  0  0  0  0  0  0  0  0
  130.0543  135.9020  160.4207 C   0  0  1  0  0  0  0  0  0  0  0  0
  130.5957  135.2592  161.1148 H   0  0  0  0  0  0  0  0  0  0  0  0
  130.4292  137.6386  160.7867 S   0  0  0  0  0  0  0  0  0  0  0  0
  130.4482  137.6787  162.6001 C   0  0  0  0  0  0  0  0  0  0  0  0
  130.2583  139.0969  163.0733 C   0  0  0  0  0  0  0  0  0  0  0  0
  131.3569  139.9131  163.2689 C   0  0  0  0  0  0  0  0  0  0  0  0
  131.1828  141.2138  163.7027 C   0  0  0  0  0  0  0  0  0  0  0  0
  129.9102  141.6987  163.9408 C   0  0  0  0  0  0  0  0  0  0  0  0
  128.8119  140.8830  163.7443 C   0  0  0  0  0  0  0  0  0  0  0  0
  128.9858  139.5832  163.3062 C   0  0  0  0  0  0  0  0  0  0  0  0
  127.7879  138.6954  163.0870 C   0  0  0  0  0  0  0  0  0  0  0  0
  127.4047  137.8156  164.6134 Cl  0  0  0  0  0  0  0  0  0  0  0  0
  128.5731  135.6660  160.5687 C   0  0  0  0  0  0  0  0  0  0  0  0
  128.0542  135.2749  161.7889 C   0  0  0  0  0  0  0  0  0  0  0  0
  126.6951  135.0627  161.9256 C   0  0  0  0  0  0  0  0  0  0  0  0
  125.8562  135.2329  160.8403 C   0  0  0  0  0  0  0  0  0  0  0  0
  126.3758  135.6189  159.6189 C   0  0  0  0  0  0  0  0  0  0  0  0
  127.7344  135.8354  159.4831 C   0  0  0  0  0  0  0  0  0  0  0  0
  130.5931  133.9242  157.3315 N   0  0  0  0  0  0  0  0  0  0  0  0
  130.9986  134.4793  156.6472 H   0  0  0  0  0  0  0  0  0  0  0  0
  131.2787  130.6571  156.0249 C   0  0  0  0  0  0  0  0  0  0  0  0
  131.4611  129.8900  154.8937 C   0  0  0  0  0  0  0  0  0  0  0  0
  130.6097  129.7291  151.7215 H   0  0  0  0  0  0  0  0  0  0  0  0
  131.5988  128.6864  152.5916 H   0  0  0  0  0  0  0  0  0  0  0  0
  129.5671  131.6645  152.7182 H   0  0  0  0  0  0  0  0  0  0  0  0
  129.2292  133.0321  154.7336 H   0  0  0  0  0  0  0  0  0  0  0  0
  129.3499  131.2025  158.5745 H   0  0  0  0  0  0  0  0  0  0  0  0
  130.8621  136.2819  158.4942 H   0  0  0  0  0  0  0  0  0  0  0  0
  129.6409  137.0559  162.9857 H   0  0  0  0  0  0  0  0  0  0  0  0
  131.4040  137.2999  162.9620 H   0  0  0  0  0  0  0  0  0  0  0  0
  132.3510  139.5344  163.0830 H   0  0  0  0  0  0  0  0  0  0  0  0
  132.0411  141.8512  163.8562 H   0  0  0  0  0  0  0  0  0  0  0  0
  129.7742  142.7148  164.2806 H   0  0  0  0  0  0  0  0  0  0  0  0
  127.8178  141.2617  163.9306 H   0  0  0  0  0  0  0  0  0  0  0  0
  126.9327  139.3047  162.7943 H   0  0  0  0  0  0  0  0  0  0  0  0
  128.0084  137.9759  162.2984 H   0  0  0  0  0  0  0  0  0  0  0  0
  128.7101  135.1384  162.6359 H   0  0  0  0  0  0  0  0  0  0  0  0
  126.2891  134.7614  162.8800 H   0  0  0  0  0  0  0  0  0  0  0  0
  124.7946  135.0644  160.9466 H   0  0  0  0  0  0  0  0  0  0  0  0
  125.7203  135.7519  158.7708 H   0  0  0  0  0  0  0  0  0  0  0  0
  128.1404  136.1370  158.5288 H   0  0  0  0  0  0  0  0  0  0  0  0
  131.7596  130.3776  156.9507 H   0  0  0  0  0  0  0  0  0  0  0  0
  132.0850  129.0094  154.9336 H   0  0  0  0  0  0  0  0  0  0  0  0
  1  2  1  0
  1 34  1  0
  1 35  1  0
  2 33  2  0
  2  3  1  0
  3  4  2  0
  3 36  1  0
  4  5  1  0
  4 37  1  0
  5  6  1  0
  5 32  2  0
  6 30  1  0
  6  7  2  0
  7  8  1  0
  7 38  1  0
  8  9  1  0
  8 10  1  0
 10 11  1  0
 10 30  2  0
 11 12  1  0
 11 39  1  0
 12 13  1  1
 12 14  1  0
 12 24  1  0
 14 15  1  0
 15 16  1  0
 15 40  1  0
 15 41  1  0
 16 21  1  0
 16 17  2  0
 17 18  1  0
 17 42  1  0
 18 19  2  0
 18 43  1  0
 19 20  1  0
 19 44  1  0
 20 21  2  0
 20 45  1  0
 21 22  1  0
 22 23  1  0
 22 46  1  0
 22 47  1  0
 24 29  1  0
 24 25  2  0
 25 26  1  0
 25 48  1  0
 26 27  2  0
 26 49  1  0
 27 28  1  0
 27 50  1  0
 28 29  2  0
 28 51  1  0
 29 52  1  0
 30 31  1  0
 32 33  1  0
 32 53  1  0
 33 54  1  0
M  CHG  1  30   1
M  END
>  <DOCK_score>  (1) 
-57.22039

>  <SMILES>  (1) 
Nc1ccc(-c2c[nH]c(N[C@@H](SCc3ccccc3CCl)c3ccccc3)[nH+]2)cc1

$$$$
