OC[C@@H](c1ccc(-c2ccccc2)cc1)[NH+]1CCN(C(c2ccccc2)c2ccccc2)CC1
     RDKit          3D

 67 71  0  0  1  0  0  0  0  0999 V2000
  127.0866  136.4708  161.0022 O   0  0  0  0  0  0  0  0  0  0  0  0
  127.6308  135.9734  159.7781 C   0  0  0  0  0  0  0  0  0  0  0  0
  129.0253  135.3992  160.0360 C   0  0  1  0  0  0  0  0  0  0  0  0
  129.0257  134.8570  160.9816 H   0  0  0  0  0  0  0  0  0  0  0  0
  129.3964  134.4595  158.9179 C   0  0  0  0  0  0  0  0  0  0  0  0
  129.4612  134.9271  157.6177 C   0  0  0  0  0  0  0  0  0  0  0  0
  129.8052  134.0718  156.5905 C   0  0  0  0  0  0  0  0  0  0  0  0
  130.0773  132.7328  156.8637 C   0  0  0  0  0  0  0  0  0  0  0  0
  130.4418  131.8073  155.7626 C   0  0  0  0  0  0  0  0  0  0  0  0
  131.2868  130.7270  156.0082 C   0  0  0  0  0  0  0  0  0  0  0  0
  131.6188  129.8665  154.9814 C   0  0  0  0  0  0  0  0  0  0  0  0
  131.1225  130.0809  153.7082 C   0  0  0  0  0  0  0  0  0  0  0  0
  130.2874  131.1548  153.4576 C   0  0  0  0  0  0  0  0  0  0  0  0
  129.9447  132.0185  154.4782 C   0  0  0  0  0  0  0  0  0  0  0  0
  130.0054  132.2660  158.1746 C   0  0  0  0  0  0  0  0  0  0  0  0
  129.6654  133.1312  159.1949 C   0  0  0  0  0  0  0  0  0  0  0  0
  130.0019  136.4947  160.0993 N   0  0  0  0  0  0  0  0  0  0  0  0
  130.0013  136.9966  159.2239 H   0  0  0  0  0  0  0  0  0  0  0  0
  131.3406  135.9432  160.3463 C   0  0  0  0  0  0  0  0  0  0  0  0
  132.3612  137.0825  160.3933 C   0  0  0  0  0  0  0  0  0  0  0  0
  131.9944  138.0208  161.4632 N   0  0  0  0  0  0  0  0  0  0  0  0
  132.9834  139.1010  161.5782 C   0  0  0  0  0  0  0  0  0  0  0  0
  132.5744  140.0410  162.6829 C   0  0  0  0  0  0  0  0  0  0  0  0
  131.7690  141.1287  162.4021 C   0  0  0  0  0  0  0  0  0  0  0  0
  131.3902  141.9884  163.4163 C   0  0  0  0  0  0  0  0  0  0  0  0
  131.8244  141.7654  164.7097 C   0  0  0  0  0  0  0  0  0  0  0  0
  132.6341  140.6806  164.9894 C   0  0  0  0  0  0  0  0  0  0  0  0
  133.0093  139.8185  163.9761 C   0  0  0  0  0  0  0  0  0  0  0  0
  134.3348  138.5134  161.8932 C   0  0  0  0  0  0  0  0  0  0  0  0
  135.4829  139.1476  161.4568 C   0  0  0  0  0  0  0  0  0  0  0  0
  136.7228  138.6108  161.7492 C   0  0  0  0  0  0  0  0  0  0  0  0
  136.8141  137.4349  162.4704 C   0  0  0  0  0  0  0  0  0  0  0  0
  135.6657  136.7979  162.9022 C   0  0  0  0  0  0  0  0  0  0  0  0
  134.4261  137.3371  162.6133 C   0  0  0  0  0  0  0  0  0  0  0  0
  130.6459  138.5624  161.2431 C   0  0  0  0  0  0  0  0  0  0  0  0
  129.6396  137.4109  161.1888 C   0  0  0  0  0  0  0  0  0  0  0  0
  126.2017  136.8508  160.9135 H   0  0  0  0  0  0  0  0  0  0  0  0
  126.9827  135.1907  159.3839 H   0  0  0  0  0  0  0  0  0  0  0  0
  127.7005  136.7859  159.0548 H   0  0  0  0  0  0  0  0  0  0  0  0
  129.2461  135.9641  157.4065 H   0  0  0  0  0  0  0  0  0  0  0  0
  129.8593  134.4388  155.5762 H   0  0  0  0  0  0  0  0  0  0  0  0
  131.6782  130.5610  157.0011 H   0  0  0  0  0  0  0  0  0  0  0  0
  132.2705  129.0264  155.1714 H   0  0  0  0  0  0  0  0  0  0  0  0
  131.3885  129.4077  152.9067 H   0  0  0  0  0  0  0  0  0  0  0  0
  129.9031  131.3178  152.4616 H   0  0  0  0  0  0  0  0  0  0  0  0
  129.2929  132.8570  154.2815 H   0  0  0  0  0  0  0  0  0  0  0  0
  130.2149  131.2291  158.3919 H   0  0  0  0  0  0  0  0  0  0  0  0
  129.6098  132.7706  160.2113 H   0  0  0  0  0  0  0  0  0  0  0  0
  131.3448  135.4119  161.2981 H   0  0  0  0  0  0  0  0  0  0  0  0
  131.6031  135.2534  159.5442 H   0  0  0  0  0  0  0  0  0  0  0  0
  132.3669  137.6056  159.4370 H   0  0  0  0  0  0  0  0  0  0  0  0
  133.3528  136.6751  160.5908 H   0  0  0  0  0  0  0  0  0  0  0  0
  133.0352  139.6477  160.6367 H   0  0  0  0  0  0  0  0  0  0  0  0
  131.4328  141.3050  161.3910 H   0  0  0  0  0  0  0  0  0  0  0  0
  130.7574  142.8358  163.1976 H   0  0  0  0  0  0  0  0  0  0  0  0
  131.5306  142.4390  165.5009 H   0  0  0  0  0  0  0  0  0  0  0  0
  132.9734  140.5064  165.9998 H   0  0  0  0  0  0  0  0  0  0  0  0
  133.6419  138.9709  164.1948 H   0  0  0  0  0  0  0  0  0  0  0  0
  135.4114  140.0642  160.8902 H   0  0  0  0  0  0  0  0  0  0  0  0
  137.6200  139.1086  161.4122 H   0  0  0  0  0  0  0  0  0  0  0  0
  137.7828  137.0141  162.6966 H   0  0  0  0  0  0  0  0  0  0  0  0
  135.7372  135.8793  163.4656 H   0  0  0  0  0  0  0  0  0  0  0  0
  133.5289  136.8394  162.9508 H   0  0  0  0  0  0  0  0  0  0  0  0
  130.6234  139.1100  160.3008 H   0  0  0  0  0  0  0  0  0  0  0  0
  130.3856  139.2346  162.0607 H   0  0  0  0  0  0  0  0  0  0  0  0
  128.6407  137.8094  161.0113 H   0  0  0  0  0  0  0  0  0  0  0  0
  129.6526  136.8719  162.1361 H   0  0  0  0  0  0  0  0  0  0  0  0
  1  2  1  0
  1 37  1  0
  2  3  1  0
  2 38  1  0
  2 39  1  0
  3  4  1  1
  3  5  1  0
  3 17  1  0
  5 16  1  0
  5  6  2  0
  6  7  1  0
  6 40  1  0
  7  8  2  0
  7 41  1  0
  8  9  1  0
  8 15  1  0
  9 14  1  0
  9 10  2  0
 10 11  1  0
 10 42  1  0
 11 12  2  0
 11 43  1  0
 12 13  1  0
 12 44  1  0
 13 14  2  0
 13 45  1  0
 14 46  1  0
 15 16  2  0
 15 47  1  0
 16 48  1  0
 17 18  1  0
 17 36  1  0
 17 19  1  0
 19 20  1  0
 19 49  1  0
 19 50  1  0
 20 21  1  0
 20 51  1  0
 20 52  1  0
 21 22  1  0
 21 35  1  0
 22 23  1  0
 22 29  1  0
 22 53  1  0
 23 28  1  0
 23 24  2  0
 24 25  1  0
 24 54  1  0
 25 26  2  0
 25 55  1  0
 26 27  1  0
 26 56  1  0
 27 28  2  0
 27 57  1  0
 28 58  1  0
 29 34  1  0
 29 30  2  0
 30 31  1  0
 30 59  1  0
 31 32  2  0
 31 60  1  0
 32 33  1  0
 32 61  1  0
 33 34  2  0
 33 62  1  0
 34 63  1  0
 35 36  1  0
 35 64  1  0
 35 65  1  0
 36 66  1  0
 36 67  1  0
M  CHG  1  17   1
M  END
>  <DOCK_score>  (1) 
-47.547352

>  <SMILES>  (1) 
OC[C@@H](c1ccc(-c2ccccc2)cc1)[NH+]1CCN(C(c2ccccc2)c2ccccc2)CC1

$$$$
