Nc1ccc(-c2c[nH]c(N[C@H](c3ccccc3)C3C=CCCC3)[nH+]2)cc1
     RDKit          3D

 51 54  0  0  1  0  0  0  0  0999 V2000
  131.1336  129.2153  151.4389 N   0  0  0  0  0  0  0  0  0  0  0  0
  130.9670  129.8785  152.6569 C   0  0  0  0  0  0  0  0  0  0  0  0
  130.1501  131.0010  152.7295 C   0  0  0  0  0  0  0  0  0  0  0  0
  129.9848  131.6580  153.9304 C   0  0  0  0  0  0  0  0  0  0  0  0
  130.6375  131.1958  155.0722 C   0  0  0  0  0  0  0  0  0  0  0  0
  130.4612  131.9009  156.3655 C   0  0  0  0  0  0  0  0  0  0  0  0
  129.9565  131.3649  157.5041 C   0  0  0  0  0  0  0  0  0  0  0  0
  129.9766  132.3576  158.4550 N   0  0  0  0  0  0  0  0  0  0  0  0
  129.6808  132.2778  159.3755 H   0  0  0  0  0  0  0  0  0  0  0  0
  130.4847  133.4737  157.8656 C   0  0  0  0  0  0  0  0  0  0  0  0
  130.6690  134.6991  158.4830 N   0  0  0  0  0  0  0  0  0  0  0  0
  130.3044  134.8718  159.8914 C   0  0  2  0  0  0  0  0  0  0  0  0
  130.5889  133.9813  160.4521 H   0  0  0  0  0  0  0  0  0  0  0  0
  128.8163  135.0815  160.0031 C   0  0  0  0  0  0  0  0  0  0  0  0
  128.1419  134.6603  161.1339 C   0  0  0  0  0  0  0  0  0  0  0  0
  126.7776  134.8571  161.2384 C   0  0  0  0  0  0  0  0  0  0  0  0
  126.0861  135.4658  160.2078 C   0  0  0  0  0  0  0  0  0  0  0  0
  126.7597  135.8822  159.0748 C   0  0  0  0  0  0  0  0  0  0  0  0
  128.1247  135.6902  158.9725 C   0  0  0  0  0  0  0  0  0  0  0  0
  131.0352  136.0888  160.4619 C   0  0  2  0  0  0  0  0  0  0  0  0
  132.5165  135.8847  160.3341 C   0  0  0  0  0  0  0  0  0  0  0  0
  133.3711  136.1736  161.2623 C   0  0  0  0  0  0  0  0  0  0  0  0
  132.9994  136.7439  162.5997 C   0  0  0  0  0  0  0  0  0  0  0  0
  131.5818  137.3183  162.5520 C   0  0  0  0  0  0  0  0  0  0  0  0
  130.6526  136.2666  161.9328 C   0  0  0  0  0  0  0  0  0  0  0  0
  130.7763  133.1959  156.6181 N   0  0  0  0  0  0  0  0  0  0  0  0
  131.1567  133.8174  155.9778 H   0  0  0  0  0  0  0  0  0  0  0  0
  131.4607  130.0733  154.9957 C   0  0  0  0  0  0  0  0  0  0  0  0
  131.6186  129.4161  153.7938 C   0  0  0  0  0  0  0  0  0  0  0  0
  130.6790  129.5374  150.6448 H   0  0  0  0  0  0  0  0  0  0  0  0
  131.7036  128.4320  151.3872 H   0  0  0  0  0  0  0  0  0  0  0  0
  129.6447  131.3586  151.8447 H   0  0  0  0  0  0  0  0  0  0  0  0
  129.3498  132.5298  153.9865 H   0  0  0  0  0  0  0  0  0  0  0  0
  129.6096  130.3511  157.6395 H   0  0  0  0  0  0  0  0  0  0  0  0
  131.0355  135.4444  157.9821 H   0  0  0  0  0  0  0  0  0  0  0  0
  128.6814  134.1808  161.9372 H   0  0  0  0  0  0  0  0  0  0  0  0
  126.2513  134.5315  162.1235 H   0  0  0  0  0  0  0  0  0  0  0  0
  125.0195  135.6156  160.2875 H   0  0  0  0  0  0  0  0  0  0  0  0
  126.2193  136.3575  158.2694 H   0  0  0  0  0  0  0  0  0  0  0  0
  128.6510  136.0153  158.0871 H   0  0  0  0  0  0  0  0  0  0  0  0
  130.7457  136.9788  159.9031 H   0  0  0  0  0  0  0  0  0  0  0  0
  132.8926  135.4704  159.4104 H   0  0  0  0  0  0  0  0  0  0  0  0
  134.4169  135.9927  161.0619 H   0  0  0  0  0  0  0  0  0  0  0  0
  133.7012  137.5352  162.8629 H   0  0  0  0  0  0  0  0  0  0  0  0
  133.0454  135.9575  163.3531 H   0  0  0  0  0  0  0  0  0  0  0  0
  131.5726  138.2208  161.9410 H   0  0  0  0  0  0  0  0  0  0  0  0
  131.2474  137.5531  163.5627 H   0  0  0  0  0  0  0  0  0  0  0  0
  129.6186  136.6038  162.0043 H   0  0  0  0  0  0  0  0  0  0  0  0
  130.7696  135.3192  162.4589 H   0  0  0  0  0  0  0  0  0  0  0  0
  131.9711  129.7164  155.8780 H   0  0  0  0  0  0  0  0  0  0  0  0
  132.2527  128.5439  153.7350 H   0  0  0  0  0  0  0  0  0  0  0  0
  1  2  1  0
  1 30  1  0
  1 31  1  0
  2 29  2  0
  2  3  1  0
  3  4  2  0
  3 32  1  0
  4  5  1  0
  4 33  1  0
  5  6  1  0
  5 28  2  0
  6 26  1  0
  6  7  2  0
  7  8  1  0
  7 34  1  0
  8  9  1  0
  8 10  1  0
 10 11  1  0
 10 26  2  0
 11 12  1  0
 11 35  1  0
 12 13  1  1
 12 14  1  0
 12 20  1  0
 14 19  1  0
 14 15  2  0
 15 16  1  0
 15 36  1  0
 16 17  2  0
 16 37  1  0
 17 18  1  0
 17 38  1  0
 18 19  2  0
 18 39  1  0
 19 40  1  0
 20 25  1  0
 20 21  1  0
 20 41  1  6
 21 22  2  0
 21 42  1  0
 22 23  1  0
 22 43  1  0
 23 24  1  0
 23 44  1  0
 23 45  1  0
 24 25  1  0
 24 46  1  0
 24 47  1  0
 25 48  1  0
 25 49  1  0
 26 27  1  0
 28 29  1  0
 28 50  1  0
 29 51  1  0
M  CHG  1  26   1
M  END
>  <DOCK_score>  (1) 
-57.812038

>  <SMILES>  (1) 
Nc1ccc(-c2c[nH]c(N[C@H](c3ccccc3)C3C=CCCC3)[nH+]2)cc1

$$$$
