Nc1ccc(Nc2[nH]cc(-c3ccc(F)cc3)[nH+]2)c(C2=C(CO)CC2)c1
     RDKit          3D

 46 49  0  0  1  0  0  0  0  0999 V2000
  126.5779  136.6684  162.8249 N   0  0  0  0  0  0  0  0  0  0  0  0
  127.4853  136.2996  161.8250 C   0  0  0  0  0  0  0  0  0  0  0  0
  127.0227  135.9661  160.5571 C   0  0  0  0  0  0  0  0  0  0  0  0
  127.9108  135.5954  159.5667 C   0  0  0  0  0  0  0  0  0  0  0  0
  129.2729  135.5646  159.8282 C   0  0  0  0  0  0  0  0  0  0  0  0
  130.1710  135.1945  158.8232 N   0  0  0  0  0  0  0  0  0  0  0  0
  130.0797  133.9416  158.2398 C   0  0  0  0  0  0  0  0  0  0  0  0
  129.6186  132.8150  158.8491 N   0  0  0  0  0  0  0  0  0  0  0  0
  129.2981  132.7455  159.7620 H   0  0  0  0  0  0  0  0  0  0  0  0
  129.6917  131.7945  157.9325 C   0  0  0  0  0  0  0  0  0  0  0  0
  130.1947  132.3262  156.7907 C   0  0  0  0  0  0  0  0  0  0  0  0
  130.4503  131.5946  155.5257 C   0  0  0  0  0  0  0  0  0  0  0  0
  129.7994  131.9760  154.3539 C   0  0  0  0  0  0  0  0  0  0  0  0
  130.0446  131.2963  153.1784 C   0  0  0  0  0  0  0  0  0  0  0  0
  130.9275  130.2288  153.1643 C   0  0  0  0  0  0  0  0  0  0  0  0
  131.1607  129.5626  152.0122 F   0  0  0  0  0  0  0  0  0  0  0  0
  131.5725  129.8425  154.3279 C   0  0  0  0  0  0  0  0  0  0  0  0
  131.3377  130.5200  155.5068 C   0  0  0  0  0  0  0  0  0  0  0  0
  130.4176  133.6462  157.0082 N   0  0  0  0  0  0  0  0  0  0  0  0
  130.7722  134.2715  156.3569 H   0  0  0  0  0  0  0  0  0  0  0  0
  129.7461  135.9052  161.1024 C   0  0  0  0  0  0  0  0  0  0  0  0
  131.1949  135.8742  161.3883 C   0  0  0  0  0  0  0  0  0  0  0  0
  132.1905  136.7475  161.2991 C   0  0  0  0  0  0  0  0  0  0  0  0
  132.2073  138.1840  160.8435 C   0  0  0  0  0  0  0  0  0  0  0  0
  131.7582  138.2593  159.4890 O   0  0  0  0  0  0  0  0  0  0  0  0
  133.2993  135.8549  161.7957 C   0  0  0  0  0  0  0  0  0  0  0  0
  132.1620  134.8356  161.8970 C   0  0  0  0  0  0  0  0  0  0  0  0
  128.8431  136.2730  162.0998 C   0  0  0  0  0  0  0  0  0  0  0  0
  126.8997  136.9052  163.7087 H   0  0  0  0  0  0  0  0  0  0  0  0
  125.6270  136.6874  162.6338 H   0  0  0  0  0  0  0  0  0  0  0  0
  125.9637  135.9930  160.3469 H   0  0  0  0  0  0  0  0  0  0  0  0
  127.5447  135.3333  158.5850 H   0  0  0  0  0  0  0  0  0  0  0  0
  130.8583  135.8150  158.5342 H   0  0  0  0  0  0  0  0  0  0  0  0
  129.4034  130.7657  158.0906 H   0  0  0  0  0  0  0  0  0  0  0  0
  129.1073  132.8050  154.3650 H   0  0  0  0  0  0  0  0  0  0  0  0
  129.5436  131.5937  152.2689 H   0  0  0  0  0  0  0  0  0  0  0  0
  132.2598  129.0095  154.3124 H   0  0  0  0  0  0  0  0  0  0  0  0
  131.8413  130.2185  156.4134 H   0  0  0  0  0  0  0  0  0  0  0  0
  131.5468  138.7743  161.4787 H   0  0  0  0  0  0  0  0  0  0  0  0
  133.2224  138.5749  160.9120 H   0  0  0  0  0  0  0  0  0  0  0  0
  132.3004  137.7560  158.8662 H   0  0  0  0  0  0  0  0  0  0  0  0
  133.7247  136.1509  162.7545 H   0  0  0  0  0  0  0  0  0  0  0  0
  134.0514  135.6162  161.0436 H   0  0  0  0  0  0  0  0  0  0  0  0
  131.9563  134.5231  162.9207 H   0  0  0  0  0  0  0  0  0  0  0  0
  132.2809  133.9914  161.2179 H   0  0  0  0  0  0  0  0  0  0  0  0
  129.2014  136.5362  163.0840 H   0  0  0  0  0  0  0  0  0  0  0  0
  1  2  1  0
  1 29  1  0
  1 30  1  0
  2 28  2  0
  2  3  1  0
  3  4  2  0
  3 31  1  0
  4  5  1  0
  4 32  1  0
  5  6  1  0
  5 21  2  0
  6 33  1  0
  7  6  1  0
  7 19  2  0
  7  8  1  0
  8  9  1  0
  8 10  1  0
 10 11  2  0
 10 34  1  0
 11 12  1  0
 11 19  1  0
 12 18  1  0
 12 13  2  0
 13 14  1  0
 13 35  1  0
 14 15  2  0
 14 36  1  0
 15 16  1  0
 15 17  1  0
 17 18  2  0
 17 37  1  0
 18 38  1  0
 19 20  1  0
 21 22  1  0
 21 28  1  0
 22 27  1  0
 22 23  2  0
 23 24  1  0
 23 26  1  0
 24 25  1  0
 24 39  1  0
 24 40  1  0
 25 41  1  0
 26 27  1  0
 26 42  1  0
 26 43  1  0
 27 44  1  0
 27 45  1  0
 28 46  1  0
M  CHG  1  19   1
M  END
>  <DOCK_score>  (1) 
-57.019066

>  <SMILES>  (1) 
Nc1ccc(Nc2[nH]cc(-c3ccc(F)cc3)[nH+]2)c(C2=C(CO)CC2)c1

$$$$
