Nc1ccc(-c2c[nH]c(NCC(c3ccccc3)c3ccccc3)[nH+]2)cc1
     RDKit          3D

 50 53  0  0  1  0  0  0  0  0999 V2000
  135.5485  142.0597  161.1553 N   0  0  0  0  0  0  0  0  0  0  0  0
  134.6493  140.9923  161.0948 C   0  0  0  0  0  0  0  0  0  0  0  0
  134.9342  139.8890  160.2986 C   0  0  0  0  0  0  0  0  0  0  0  0
  134.0477  138.8345  160.2375 C   0  0  0  0  0  0  0  0  0  0  0  0
  132.8656  138.8754  160.9752 C   0  0  0  0  0  0  0  0  0  0  0  0
  131.9104  137.7420  160.9111 C   0  0  0  0  0  0  0  0  0  0  0  0
  131.0755  137.3452  161.9030 C   0  0  0  0  0  0  0  0  0  0  0  0
  130.3678  136.2692  161.4217 N   0  0  0  0  0  0  0  0  0  0  0  0
  129.6886  135.7679  161.8994 H   0  0  0  0  0  0  0  0  0  0  0  0
  130.7988  136.0353  160.1523 C   0  0  0  0  0  0  0  0  0  0  0  0
  130.3382  135.0324  159.3163 N   0  0  0  0  0  0  0  0  0  0  0  0
  129.0404  134.4031  159.5733 C   0  0  0  0  0  0  0  0  0  0  0  0
  129.2379  132.9039  159.8062 C   0  0  0  0  0  0  0  0  0  0  0  0
  127.9030  132.2564  160.0704 C   0  0  0  0  0  0  0  0  0  0  0  0
  127.6878  130.9412  159.7032 C   0  0  0  0  0  0  0  0  0  0  0  0
  126.4649  130.3460  159.9501 C   0  0  0  0  0  0  0  0  0  0  0  0
  125.4536  131.0690  160.5545 C   0  0  0  0  0  0  0  0  0  0  0  0
  125.6670  132.3859  160.9169 C   0  0  0  0  0  0  0  0  0  0  0  0
  126.8916  132.9796  160.6749 C   0  0  0  0  0  0  0  0  0  0  0  0
  129.8636  132.2837  158.5835 C   0  0  0  0  0  0  0  0  0  0  0  0
  130.6894  131.1827  158.7127 C   0  0  0  0  0  0  0  0  0  0  0  0
  131.2595  130.6109  157.5906 C   0  0  0  0  0  0  0  0  0  0  0  0
  131.0122  131.1465  156.3405 C   0  0  0  0  0  0  0  0  0  0  0  0
  130.1906  132.2507  156.2118 C   0  0  0  0  0  0  0  0  0  0  0  0
  129.6162  132.8193  157.3333 C   0  0  0  0  0  0  0  0  0  0  0  0
  131.7180  136.9194  159.8497 N   0  0  0  0  0  0  0  0  0  0  0  0
  132.1860  136.9763  159.0019 H   0  0  0  0  0  0  0  0  0  0  0  0
  132.5798  139.9852  161.7688 C   0  0  0  0  0  0  0  0  0  0  0  0
  133.4718  141.0350  161.8314 C   0  0  0  0  0  0  0  0  0  0  0  0
  136.3712  142.0303  160.6411 H   0  0  0  0  0  0  0  0  0  0  0  0
  135.3510  142.8297  161.7100 H   0  0  0  0  0  0  0  0  0  0  0  0
  135.8501  139.8577  159.7271 H   0  0  0  0  0  0  0  0  0  0  0  0
  134.2693  137.9774  159.6189 H   0  0  0  0  0  0  0  0  0  0  0  0
  130.9811  137.7916  162.8819 H   0  0  0  0  0  0  0  0  0  0  0  0
  130.8748  134.7464  158.5605 H   0  0  0  0  0  0  0  0  0  0  0  0
  128.3869  134.5544  158.7142 H   0  0  0  0  0  0  0  0  0  0  0  0
  128.5878  134.8516  160.4576 H   0  0  0  0  0  0  0  0  0  0  0  0
  129.8915  132.7526  160.6651 H   0  0  0  0  0  0  0  0  0  0  0  0
  128.4764  130.3778  159.2269 H   0  0  0  0  0  0  0  0  0  0  0  0
  126.2981  129.3172  159.6666 H   0  0  0  0  0  0  0  0  0  0  0  0
  124.4967  130.6053  160.7432 H   0  0  0  0  0  0  0  0  0  0  0  0
  124.8768  132.9510  161.3888 H   0  0  0  0  0  0  0  0  0  0  0  0
  127.0583  134.0085  160.9576 H   0  0  0  0  0  0  0  0  0  0  0  0
  130.8862  130.7669  159.6898 H   0  0  0  0  0  0  0  0  0  0  0  0
  131.9017  129.7484  157.6912 H   0  0  0  0  0  0  0  0  0  0  0  0
  131.4612  130.7024  155.4643 H   0  0  0  0  0  0  0  0  0  0  0  0
  129.9976  132.6693  155.2352 H   0  0  0  0  0  0  0  0  0  0  0  0
  128.9746  133.6822  157.2328 H   0  0  0  0  0  0  0  0  0  0  0  0
  131.6623  140.0210  162.3375 H   0  0  0  0  0  0  0  0  0  0  0  0
  133.2529  141.8929  162.4496 H   0  0  0  0  0  0  0  0  0  0  0  0
  1  2  1  0
  1 30  1  0
  1 31  1  0
  2 29  2  0
  2  3  1  0
  3  4  2  0
  3 32  1  0
  4  5  1  0
  4 33  1  0
  5  6  1  0
  5 28  2  0
  6 26  1  0
  6  7  2  0
  7  8  1  0
  7 34  1  0
  8  9  1  0
  8 10  1  0
 10 11  1  0
 10 26  2  0
 11 12  1  0
 11 35  1  0
 12 13  1  0
 12 36  1  0
 12 37  1  0
 13 14  1  0
 13 20  1  0
 13 38  1  0
 14 19  1  0
 14 15  2  0
 15 16  1  0
 15 39  1  0
 16 17  2  0
 16 40  1  0
 17 18  1  0
 17 41  1  0
 18 19  2  0
 18 42  1  0
 19 43  1  0
 20 25  1  0
 20 21  2  0
 21 22  1  0
 21 44  1  0
 22 23  2  0
 22 45  1  0
 23 24  1  0
 23 46  1  0
 24 25  2  0
 24 47  1  0
 25 48  1  0
 26 27  1  0
 28 29  1  0
 28 49  1  0
 29 50  1  0
M  CHG  1  26   1
M  END
>  <DOCK_score>  (1) 
-56.264988

>  <SMILES>  (1) 
Nc1ccc(-c2c[nH]c(NCC(c3ccccc3)c3ccccc3)[nH+]2)cc1

$$$$
