Oc1ccc(S[C@@H](c2ccccc2)c2ccccn2)c(Nc2[nH]cc(-c3ccccc3)[nH+]2)c1
     RDKit          3D

 56 60  0  0  1  0  0  0  0  0999 V2000
  125.5429  135.9790  160.5856 O   0  0  0  0  0  0  0  0  0  0  0  0
  126.8561  136.2474  160.8155 C   0  0  0  0  0  0  0  0  0  0  0  0
  127.2249  137.0128  161.9120 C   0  0  0  0  0  0  0  0  0  0  0  0
  128.5586  137.2888  162.1491 C   0  0  0  0  0  0  0  0  0  0  0  0
  129.5321  136.8007  161.2903 C   0  0  0  0  0  0  0  0  0  0  0  0
  131.2319  137.1533  161.5918 S   0  0  0  0  0  0  0  0  0  0  0  0
  131.7556  135.7699  162.6417 C   0  0  1  0  0  0  0  0  0  0  0  0
  130.9665  135.5375  163.3568 H   0  0  0  0  0  0  0  0  0  0  0  0
  132.0264  134.5616  161.7825 C   0  0  0  0  0  0  0  0  0  0  0  0
  132.9936  134.6175  160.7966 C   0  0  0  0  0  0  0  0  0  0  0  0
  133.2446  133.5079  160.0111 C   0  0  0  0  0  0  0  0  0  0  0  0
  132.5224  132.3454  160.2058 C   0  0  0  0  0  0  0  0  0  0  0  0
  131.5519  132.2912  161.1886 C   0  0  0  0  0  0  0  0  0  0  0  0
  131.3035  133.3994  161.9767 C   0  0  0  0  0  0  0  0  0  0  0  0
  133.0107  136.1497  163.3841 C   0  0  0  0  0  0  0  0  0  0  0  0
  133.9000  137.0400  162.8119 C   0  0  0  0  0  0  0  0  0  0  0  0
  135.0491  137.3867  163.5055 C   0  0  0  0  0  0  0  0  0  0  0  0
  135.2672  136.8143  164.7497 C   0  0  0  0  0  0  0  0  0  0  0  0
  134.3355  135.9281  165.2557 C   0  0  0  0  0  0  0  0  0  0  0  0
  133.2507  135.6249  164.5697 N   0  0  0  0  0  0  0  0  0  0  0  0
  129.1635  136.0304  160.1872 C   0  0  0  0  0  0  0  0  0  0  0  0
  130.1435  135.5356  159.3178 N   0  0  0  0  0  0  0  0  0  0  0  0
  129.9339  134.3435  158.6447 C   0  0  0  0  0  0  0  0  0  0  0  0
  129.1926  133.2961  159.0988 N   0  0  0  0  0  0  0  0  0  0  0  0
  128.7168  133.2522  159.9430 H   0  0  0  0  0  0  0  0  0  0  0  0
  129.2420  132.3132  158.1409 C   0  0  0  0  0  0  0  0  0  0  0  0
  130.0116  132.7874  157.1296 C   0  0  0  0  0  0  0  0  0  0  0  0
  130.3450  132.0688  155.8756 C   0  0  0  0  0  0  0  0  0  0  0  0
  129.9733  132.6031  154.6432 C   0  0  0  0  0  0  0  0  0  0  0  0
  130.2908  131.9327  153.4794 C   0  0  0  0  0  0  0  0  0  0  0  0
  130.9663  130.7268  153.5350 C   0  0  0  0  0  0  0  0  0  0  0  0
  131.3329  130.1891  154.7557 C   0  0  0  0  0  0  0  0  0  0  0  0
  131.0259  130.8537  155.9257 C   0  0  0  0  0  0  0  0  0  0  0  0
  130.4216  134.0354  157.4675 N   0  0  0  0  0  0  0  0  0  0  0  0
  130.9859  134.6082  156.9249 H   0  0  0  0  0  0  0  0  0  0  0  0
  127.8242  135.7603  159.9503 C   0  0  0  0  0  0  0  0  0  0  0  0
  124.9430  136.3601  161.2413 H   0  0  0  0  0  0  0  0  0  0  0  0
  126.4684  137.3941  162.5819 H   0  0  0  0  0  0  0  0  0  0  0  0
  128.8426  137.8853  163.0035 H   0  0  0  0  0  0  0  0  0  0  0  0
  133.5552  135.5268  160.6419 H   0  0  0  0  0  0  0  0  0  0  0  0
  134.0028  133.5504  159.2430 H   0  0  0  0  0  0  0  0  0  0  0  0
  132.7163  131.4797  159.5900 H   0  0  0  0  0  0  0  0  0  0  0  0
  130.9874  131.3830  161.3405 H   0  0  0  0  0  0  0  0  0  0  0  0
  130.5449  133.3571  162.7443 H   0  0  0  0  0  0  0  0  0  0  0  0
  133.7002  137.4627  161.8384 H   0  0  0  0  0  0  0  0  0  0  0  0
  135.7596  138.0829  163.0851 H   0  0  0  0  0  0  0  0  0  0  0  0
  136.1539  137.0580  165.3158 H   0  0  0  0  0  0  0  0  0  0  0  0
  134.4979  135.4779  166.2239 H   0  0  0  0  0  0  0  0  0  0  0  0
  130.9690  136.0278  159.1870 H   0  0  0  0  0  0  0  0  0  0  0  0
  128.7605  131.3475  158.1845 H   0  0  0  0  0  0  0  0  0  0  0  0
  129.4419  133.5422  154.5988 H   0  0  0  0  0  0  0  0  0  0  0  0
  130.0073  132.3479  152.5236 H   0  0  0  0  0  0  0  0  0  0  0  0
  131.2085  130.2039  152.6217 H   0  0  0  0  0  0  0  0  0  0  0  0
  131.8609  129.2477  154.7933 H   0  0  0  0  0  0  0  0  0  0  0  0
  131.3129  130.4331  156.8781 H   0  0  0  0  0  0  0  0  0  0  0  0
  127.5355  135.1680  159.0946 H   0  0  0  0  0  0  0  0  0  0  0  0
  1  2  1  0
  1 37  1  0
  2 36  2  0
  2  3  1  0
  3  4  2  0
  3 38  1  0
  4  5  1  0
  4 39  1  0
  5  6  1  0
  5 21  2  0
  6  7  1  0
  7  8  1  1
  7  9  1  0
  7 15  1  0
  9 14  1  0
  9 10  2  0
 10 11  1  0
 10 40  1  0
 11 12  2  0
 11 41  1  0
 12 13  1  0
 12 42  1  0
 13 14  2  0
 13 43  1  0
 14 44  1  0
 15 20  1  0
 15 16  2  0
 16 17  1  0
 16 45  1  0
 17 18  2  0
 17 46  1  0
 18 19  1  0
 18 47  1  0
 19 20  2  0
 19 48  1  0
 21 22  1  0
 21 36  1  0
 22 49  1  0
 23 22  1  0
 23 34  2  0
 23 24  1  0
 24 25  1  0
 24 26  1  0
 26 27  2  0
 26 50  1  0
 27 28  1  0
 27 34  1  0
 28 33  1  0
 28 29  2  0
 29 30  1  0
 29 51  1  0
 30 31  2  0
 30 52  1  0
 31 32  1  0
 31 53  1  0
 32 33  2  0
 32 54  1  0
 33 55  1  0
 34 35  1  0
 36 56  1  0
M  CHG  1  34   1
M  END
>  <DOCK_score>  (1) 
-58.921543

>  <SMILES>  (1) 
Oc1ccc(S[C@@H](c2ccccc2)c2ccccn2)c(Nc2[nH]cc(-c3ccccc3)[nH+]2)c1

$$$$
