Cc1ccc(C[C@@H](CCl)N2CC[NH+](Cc3cccc4ccccc34)CC2)cc1
     RDKit          3D

 58 61  0  0  1  0  0  0  0  0999 V2000
  130.0531  129.3223  151.3469 C   0  0  0  0  0  0  0  0  0  0  0  0
  130.3361  130.0565  152.6323 C   0  0  0  0  0  0  0  0  0  0  0  0
  131.0241  129.4254  153.6517 C   0  0  0  0  0  0  0  0  0  0  0  0
  131.2837  130.0989  154.8306 C   0  0  0  0  0  0  0  0  0  0  0  0
  130.8560  131.4037  154.9897 C   0  0  0  0  0  0  0  0  0  0  0  0
  131.1390  132.1381  156.2750 C   0  0  0  0  0  0  0  0  0  0  0  0
  129.9905  131.9054  157.2588 C   0  0  1  0  0  0  0  0  0  0  0  0
  129.0416  131.9342  156.7230 H   0  0  0  0  0  0  0  0  0  0  0  0
  130.1587  130.5385  157.9252 C   0  0  0  0  0  0  0  0  0  0  0  0
  128.8053  130.2644  159.0845 Cl  0  0  0  0  0  0  0  0  0  0  0  0
  130.0051  132.9559  158.2856 N   0  0  0  0  0  0  0  0  0  0  0  0
  129.3120  134.1631  157.8139 C   0  0  0  0  0  0  0  0  0  0  0  0
  129.2975  135.2087  158.9311 C   0  0  0  0  0  0  0  0  0  0  0  0
  130.6774  135.5341  159.3153 N   0  0  0  0  0  0  0  0  0  0  0  0
  131.1741  135.8916  158.5130 H   0  0  0  0  0  0  0  0  0  0  0  0
  130.6634  136.5511  160.3752 C   0  0  0  0  0  0  0  0  0  0  0  0
  132.0043  137.2366  160.4314 C   0  0  0  0  0  0  0  0  0  0  0  0
  132.2375  138.3463  159.6782 C   0  0  0  0  0  0  0  0  0  0  0  0
  133.4692  138.9963  159.7205 C   0  0  0  0  0  0  0  0  0  0  0  0
  134.4783  138.5349  160.5089 C   0  0  0  0  0  0  0  0  0  0  0  0
  134.2767  137.3889  161.2964 C   0  0  0  0  0  0  0  0  0  0  0  0
  135.2948  136.8832  162.1229 C   0  0  0  0  0  0  0  0  0  0  0  0
  135.0633  135.7710  162.8723 C   0  0  0  0  0  0  0  0  0  0  0  0
  133.8298  135.1232  162.8332 C   0  0  0  0  0  0  0  0  0  0  0  0
  132.8207  135.5843  162.0452 C   0  0  0  0  0  0  0  0  0  0  0  0
  133.0222  136.7304  161.2569 C   0  0  0  0  0  0  0  0  0  0  0  0
  131.3489  134.3239  159.8072 C   0  0  0  0  0  0  0  0  0  0  0  0
  131.3804  133.2709  158.6973 C   0  0  0  0  0  0  0  0  0  0  0  0
  130.1637  132.0333  153.9721 C   0  0  0  0  0  0  0  0  0  0  0  0
  129.9079  131.3612  152.7916 C   0  0  0  0  0  0  0  0  0  0  0  0
  129.0965  128.8059  151.4265 H   0  0  0  0  0  0  0  0  0  0  0  0
  130.0141  130.0345  150.5227 H   0  0  0  0  0  0  0  0  0  0  0  0
  130.8441  128.5957  151.1620 H   0  0  0  0  0  0  0  0  0  0  0  0
  131.3587  128.4062  153.5272 H   0  0  0  0  0  0  0  0  0  0  0  0
  131.8208  129.6059  155.6272 H   0  0  0  0  0  0  0  0  0  0  0  0
  131.2324  133.2046  156.0712 H   0  0  0  0  0  0  0  0  0  0  0  0
  132.0686  131.7680  156.7077 H   0  0  0  0  0  0  0  0  0  0  0  0
  131.1075  130.5097  158.4608 H   0  0  0  0  0  0  0  0  0  0  0  0
  130.1479  129.7591  157.1632 H   0  0  0  0  0  0  0  0  0  0  0  0
  129.8332  134.5659  156.9455 H   0  0  0  0  0  0  0  0  0  0  0  0
  128.2879  133.9105  157.5389 H   0  0  0  0  0  0  0  0  0  0  0  0
  128.7643  134.8107  159.7944 H   0  0  0  0  0  0  0  0  0  0  0  0
  128.7963  136.1102  158.5785 H   0  0  0  0  0  0  0  0  0  0  0  0
  129.8878  137.2870  160.1624 H   0  0  0  0  0  0  0  0  0  0  0  0
  130.4587  136.0744  161.3338 H   0  0  0  0  0  0  0  0  0  0  0  0
  131.4547  138.7309  159.0411 H   0  0  0  0  0  0  0  0  0  0  0  0
  133.6269  139.8772  159.1158 H   0  0  0  0  0  0  0  0  0  0  0  0
  135.4290  139.0470  160.5291 H   0  0  0  0  0  0  0  0  0  0  0  0
  136.2558  137.3742  162.1629 H   0  0  0  0  0  0  0  0  0  0  0  0
  135.8473  135.3845  163.5067 H   0  0  0  0  0  0  0  0  0  0  0  0
  133.6724  134.2421  163.4378 H   0  0  0  0  0  0  0  0  0  0  0  0
  131.8699  135.0723  162.0255 H   0  0  0  0  0  0  0  0  0  0  0  0
  130.8052  133.9304  160.6660 H   0  0  0  0  0  0  0  0  0  0  0  0
  132.3686  134.5694  160.1042 H   0  0  0  0  0  0  0  0  0  0  0  0
  131.8654  132.3674  159.0668 H   0  0  0  0  0  0  0  0  0  0  0  0
  131.9357  133.6590  157.8434 H   0  0  0  0  0  0  0  0  0  0  0  0
  129.8257  133.0513  154.0982 H   0  0  0  0  0  0  0  0  0  0  0  0
  129.3706  131.8545  151.9949 H   0  0  0  0  0  0  0  0  0  0  0  0
  1  2  1  0
  1 31  1  0
  1 32  1  0
  1 33  1  0
  2 30  2  0
  2  3  1  0
  3  4  2  0
  3 34  1  0
  4  5  1  0
  4 35  1  0
  5  6  1  0
  5 29  2  0
  6  7  1  0
  6 36  1  0
  6 37  1  0
  7  8  1  6
  7  9  1  0
  7 11  1  0
  9 10  1  0
  9 38  1  0
  9 39  1  0
 11 28  1  0
 11 12  1  0
 12 13  1  0
 12 40  1  0
 12 41  1  0
 13 14  1  0
 13 42  1  0
 13 43  1  0
 14 15  1  0
 14 16  1  0
 14 27  1  0
 16 17  1  0
 16 44  1  0
 16 45  1  0
 17 26  1  0
 17 18  2  0
 18 19  1  0
 18 46  1  0
 19 20  2  0
 19 47  1  0
 20 21  1  0
 20 48  1  0
 21 26  2  0
 21 22  1  0
 22 23  2  0
 22 49  1  0
 23 24  1  0
 23 50  1  0
 24 25  2  0
 24 51  1  0
 25 26  1  0
 25 52  1  0
 27 28  1  0
 27 53  1  0
 27 54  1  0
 28 55  1  0
 28 56  1  0
 29 30  1  0
 29 57  1  0
 30 58  1  0
M  CHG  1  14   1
M  END
>  <DOCK_score>  (1) 
-57.437382

>  <SMILES>  (1) 
Cc1ccc(C[C@@H](CCl)N2CC[NH+](Cc3cccc4ccccc34)CC2)cc1

$$$$
