CCc1ccc(-c2c[nH]c(N[C@@H](C=CSC3=CCC3)CC)[nH+]2)cc1
     RDKit          3D

 50 52  0  0  1  0  0  0  0  0999 V2000
  129.9288  128.6885  151.2594 C   0  0  0  0  0  0  0  0  0  0  0  0
  131.1282  129.5699  151.6133 C   0  0  0  0  0  0  0  0  0  0  0  0
  130.8301  130.3419  152.8728 C   0  0  0  0  0  0  0  0  0  0  0  0
  131.1563  129.8034  154.1040 C   0  0  0  0  0  0  0  0  0  0  0  0
  130.8910  130.5082  155.2606 C   0  0  0  0  0  0  0  0  0  0  0  0
  130.2826  131.7599  155.1866 C   0  0  0  0  0  0  0  0  0  0  0  0
  129.9898  132.5198  156.4265 C   0  0  0  0  0  0  0  0  0  0  0  0
  129.1969  132.1078  157.4465 C   0  0  0  0  0  0  0  0  0  0  0  0
  129.2025  133.1104  158.3857 N   0  0  0  0  0  0  0  0  0  0  0  0
  128.7261  133.1087  159.2306 H   0  0  0  0  0  0  0  0  0  0  0  0
  129.9994  134.1065  157.9116 C   0  0  0  0  0  0  0  0  0  0  0  0
  130.2702  135.2997  158.5593 N   0  0  0  0  0  0  0  0  0  0  0  0
  129.6773  135.5721  159.8710 C   0  0  1  0  0  0  0  0  0  0  0  0
  128.6463  135.2188  159.8842 H   0  0  0  0  0  0  0  0  0  0  0  0
  130.4671  134.8577  160.9374 C   0  0  0  0  0  0  0  0  0  0  0  0
  131.7593  134.6415  160.7689 C   0  0  0  0  0  0  0  0  0  0  0  0
  132.6827  133.8064  162.0157 S   0  0  0  0  0  0  0  0  0  0  0  0
  133.9029  134.9944  162.4680 C   0  0  0  0  0  0  0  0  0  0  0  0
  134.1589  136.2119  162.0577 C   0  0  0  0  0  0  0  0  0  0  0  0
  135.3220  136.3943  162.9850 C   0  0  0  0  0  0  0  0  0  0  0  0
  135.0207  134.9812  163.4663 C   0  0  0  0  0  0  0  0  0  0  0  0
  129.7038  137.0781  160.1397 C   0  0  0  0  0  0  0  0  0  0  0  0
  129.0847  137.3628  161.5096 C   0  0  0  0  0  0  0  0  0  0  0  0
  130.4727  133.7475  156.7433 N   0  0  0  0  0  0  0  0  0  0  0  0
  131.0707  134.2761  156.1921 H   0  0  0  0  0  0  0  0  0  0  0  0
  129.9509  132.2954  153.9433 C   0  0  0  0  0  0  0  0  0  0  0  0
  130.2262  131.5842  152.7930 C   0  0  0  0  0  0  0  0  0  0  0  0
  130.1443  128.1303  150.3483 H   0  0  0  0  0  0  0  0  0  0  0  0
  129.7370  127.9919  152.0755 H   0  0  0  0  0  0  0  0  0  0  0  0
  129.0507  129.3150  151.1026 H   0  0  0  0  0  0  0  0  0  0  0  0
  132.0061  128.9441  151.7696 H   0  0  0  0  0  0  0  0  0  0  0  0
  131.3197  130.2671  150.7967 H   0  0  0  0  0  0  0  0  0  0  0  0
  131.6233  128.8313  154.1604 H   0  0  0  0  0  0  0  0  0  0  0  0
  131.1503  130.0887  156.2214 H   0  0  0  0  0  0  0  0  0  0  0  0
  128.6630  131.1711  157.5085 H   0  0  0  0  0  0  0  0  0  0  0  0
  130.8527  135.9553  158.1447 H   0  0  0  0  0  0  0  0  0  0  0  0
  129.9764  134.5225  161.8393 H   0  0  0  0  0  0  0  0  0  0  0  0
  132.2500  134.9768  159.8671 H   0  0  0  0  0  0  0  0  0  0  0  0
  133.6991  136.8515  161.3189 H   0  0  0  0  0  0  0  0  0  0  0  0
  136.2801  136.4943  162.4747 H   0  0  0  0  0  0  0  0  0  0  0  0
  135.1620  137.1578  163.7463 H   0  0  0  0  0  0  0  0  0  0  0  0
  134.6847  134.9316  164.5021 H   0  0  0  0  0  0  0  0  0  0  0  0
  135.8066  134.2615  163.2372 H   0  0  0  0  0  0  0  0  0  0  0  0
  130.7348  137.4315  160.1263 H   0  0  0  0  0  0  0  0  0  0  0  0
  129.1327  137.5949  159.3683 H   0  0  0  0  0  0  0  0  0  0  0  0
  129.1034  138.4357  161.7009 H   0  0  0  0  0  0  0  0  0  0  0  0
  128.0536  137.0094  161.5226 H   0  0  0  0  0  0  0  0  0  0  0  0
  129.6557  136.8461  162.2808 H   0  0  0  0  0  0  0  0  0  0  0  0
  129.4792  133.2650  153.8801 H   0  0  0  0  0  0  0  0  0  0  0  0
  129.9693  131.9981  151.8291 H   0  0  0  0  0  0  0  0  0  0  0  0
  1  2  1  0
  1 28  1  0
  1 29  1  0
  1 30  1  0
  2  3  1  0
  2 31  1  0
  2 32  1  0
  3 27  2  0
  3  4  1  0
  4  5  2  0
  4 33  1  0
  5  6  1  0
  5 34  1  0
  6  7  1  0
  6 26  2  0
  7 24  1  0
  7  8  2  0
  8  9  1  0
  8 35  1  0
  9 10  1  0
  9 11  1  0
 11 12  1  0
 11 24  2  0
 12 13  1  0
 12 36  1  0
 13 14  1  6
 13 15  1  0
 13 22  1  0
 15 16  2  0
 15 37  1  0
 16 17  1  0
 16 38  1  0
 17 18  1  0
 18 21  1  0
 18 19  2  0
 19 20  1  0
 19 39  1  0
 20 21  1  0
 20 40  1  0
 20 41  1  0
 21 42  1  0
 21 43  1  0
 22 23  1  0
 22 44  1  0
 22 45  1  0
 23 46  1  0
 23 47  1  0
 23 48  1  0
 24 25  1  0
 26 27  1  0
 26 49  1  0
 27 50  1  0
M  CHG  1  24   1
M  END
>  <DOCK_score>  (1) 
-56.581215

>  <SMILES>  (1) 
CCc1ccc(-c2c[nH]c(N[C@@H](C=CSC3=CCC3)CC)[nH+]2)cc1

$$$$
