C[C@@H](Cl)C(Cc1ccccc1)Nc1[nH]cc(-c2ccc(-c3ccccc3)cc2)[nH+]1
     RDKit          3D

 54 57  0  0  1  0  0  0  0  0999 V2000
  133.6035  136.3666  161.2951 C   0  0  0  0  0  0  0  0  0  0  0  0
  132.2102  136.9439  161.5524 C   0  0  1  0  0  0  0  0  0  0  0  0
  132.0849  137.1292  162.6192 H   0  0  0  0  0  0  0  0  0  0  0  0
  132.0249  138.4925  160.6477 Cl  0  0  0  0  0  0  0  0  0  0  0  0
  131.1498  135.9472  161.0800 C   0  0  1  0  0  0  0  0  0  0  0  0
  129.7565  136.5247  161.3374 C   0  0  0  0  0  0  0  0  0  0  0  0
  128.7121  135.5429  160.8720 C   0  0  0  0  0  0  0  0  0  0  0  0
  128.2378  135.6014  159.5748 C   0  0  0  0  0  0  0  0  0  0  0  0
  127.2834  134.6977  159.1466 C   0  0  0  0  0  0  0  0  0  0  0  0
  126.7954  133.7425  160.0185 C   0  0  0  0  0  0  0  0  0  0  0  0
  127.2660  133.6874  161.3172 C   0  0  0  0  0  0  0  0  0  0  0  0
  128.2243  134.5876  161.7439 C   0  0  0  0  0  0  0  0  0  0  0  0
  131.3180  135.6982  159.6462 N   0  0  0  0  0  0  0  0  0  0  0  0
  130.9642  134.4717  159.1105 C   0  0  0  0  0  0  0  0  0  0  0  0
  130.4568  133.4188  159.8079 N   0  0  0  0  0  0  0  0  0  0  0  0
  130.2800  133.3929  160.7613 H   0  0  0  0  0  0  0  0  0  0  0  0
  130.2419  132.3994  158.9128 C   0  0  0  0  0  0  0  0  0  0  0  0
  130.6238  132.8584  157.6946 C   0  0  0  0  0  0  0  0  0  0  0  0
  130.5716  132.1010  156.4212 C   0  0  0  0  0  0  0  0  0  0  0  0
  129.8040  132.5763  155.3578 C   0  0  0  0  0  0  0  0  0  0  0  0
  129.7561  131.8728  154.1746 C   0  0  0  0  0  0  0  0  0  0  0  0
  130.4755  130.6850  154.0401 C   0  0  0  0  0  0  0  0  0  0  0  0
  130.4239  129.9284  152.7655 C   0  0  0  0  0  0  0  0  0  0  0  0
  130.5732  128.5426  152.7687 C   0  0  0  0  0  0  0  0  0  0  0  0
  130.5193  127.8427  151.5804 C   0  0  0  0  0  0  0  0  0  0  0  0
  130.3279  128.5151  150.3867 C   0  0  0  0  0  0  0  0  0  0  0  0
  130.1849  129.8910  150.3770 C   0  0  0  0  0  0  0  0  0  0  0  0
  130.2318  130.6006  151.5596 C   0  0  0  0  0  0  0  0  0  0  0  0
  131.2430  130.2104  155.1026 C   0  0  0  0  0  0  0  0  0  0  0  0
  131.2908  130.9135  156.2860 C   0  0  0  0  0  0  0  0  0  0  0  0
  131.0676  134.1313  157.8491 N   0  0  0  0  0  0  0  0  0  0  0  0
  131.4053  134.6995  157.1390 H   0  0  0  0  0  0  0  0  0  0  0  0
  133.7287  136.1812  160.2283 H   0  0  0  0  0  0  0  0  0  0  0  0
  134.3588  137.0766  161.6316 H   0  0  0  0  0  0  0  0  0  0  0  0
  133.7155  135.4304  161.8422 H   0  0  0  0  0  0  0  0  0  0  0  0
  131.2619  135.0111  161.6269 H   0  0  0  0  0  0  0  0  0  0  0  0
  129.6313  136.7099  162.4042 H   0  0  0  0  0  0  0  0  0  0  0  0
  129.6445  137.4608  160.7904 H   0  0  0  0  0  0  0  0  0  0  0  0
  128.6157  136.3506  158.8949 H   0  0  0  0  0  0  0  0  0  0  0  0
  126.9154  134.7411  158.1320 H   0  0  0  0  0  0  0  0  0  0  0  0
  126.0465  133.0394  159.6852 H   0  0  0  0  0  0  0  0  0  0  0  0
  126.8845  132.9412  161.9984 H   0  0  0  0  0  0  0  0  0  0  0  0
  128.5916  134.5447  162.7586 H   0  0  0  0  0  0  0  0  0  0  0  0
  131.6774  136.3926  159.0722 H   0  0  0  0  0  0  0  0  0  0  0  0
  129.8448  131.4202  159.1361 H   0  0  0  0  0  0  0  0  0  0  0  0
  129.2510  133.4982  155.4607 H   0  0  0  0  0  0  0  0  0  0  0  0
  129.1618  132.2408  153.3514 H   0  0  0  0  0  0  0  0  0  0  0  0
  130.7270  128.0170  153.6996 H   0  0  0  0  0  0  0  0  0  0  0  0
  130.6307  126.7685  151.5822 H   0  0  0  0  0  0  0  0  0  0  0  0
  130.2905  127.9637  149.4588 H   0  0  0  0  0  0  0  0  0  0  0  0
  130.0365  130.4107  149.4420 H   0  0  0  0  0  0  0  0  0  0  0  0
  130.1203  131.6748  151.5507 H   0  0  0  0  0  0  0  0  0  0  0  0
  131.7999  129.2910  154.9979 H   0  0  0  0  0  0  0  0  0  0  0  0
  131.8857  130.5457  157.1090 H   0  0  0  0  0  0  0  0  0  0  0  0
  1  2  1  0
  1 33  1  0
  1 34  1  0
  1 35  1  0
  2  3  1  1
  2  4  1  0
  2  5  1  0
  5  6  1  0
  5 13  1  0
  5 36  1  1
  6  7  1  0
  6 37  1  0
  6 38  1  0
  7 12  1  0
  7  8  2  0
  8  9  1  0
  8 39  1  0
  9 10  2  0
  9 40  1  0
 10 11  1  0
 10 41  1  0
 11 12  2  0
 11 42  1  0
 12 43  1  0
 13 44  1  0
 14 13  1  0
 14 31  2  0
 14 15  1  0
 15 16  1  0
 15 17  1  0
 17 18  2  0
 17 45  1  0
 18 19  1  0
 18 31  1  0
 19 30  1  0
 19 20  2  0
 20 21  1  0
 20 46  1  0
 21 22  2  0
 21 47  1  0
 22 23  1  0
 22 29  1  0
 23 28  1  0
 23 24  2  0
 24 25  1  0
 24 48  1  0
 25 26  2  0
 25 49  1  0
 26 27  1  0
 26 50  1  0
 27 28  2  0
 27 51  1  0
 28 52  1  0
 29 30  2  0
 29 53  1  0
 30 54  1  0
 31 32  1  0
M  CHG  1  31   1
M  END
>  <DOCK_score>  (1) 
-61.466198

>  <SMILES>  (1) 
C[C@@H](Cl)C(Cc1ccccc1)Nc1[nH]cc(-c2ccc(-c3ccccc3)cc2)[nH+]1

$$$$
