CCC(O)c1ccccc1[C@@H]([NH2+]Cc1c(C)[nH]c(C)c1C)c1cccnc1
     RDKit          3D

 57 59  0  0  1  0  0  0  0  0999 V2000
  127.6557  135.8816  156.3409 C   0  0  0  0  0  0  0  0  0  0  0  0
  128.6954  134.8361  156.7494 C   0  0  0  0  0  0  0  0  0  0  0  0
  129.1032  135.0645  158.2063 C   0  0  2  0  0  0  0  0  0  0  0  0
  129.6626  136.3720  158.3449 O   0  0  0  0  0  0  0  0  0  0  0  0
  130.1273  134.0347  158.6086 C   0  0  0  0  0  0  0  0  0  0  0  0
  130.5463  133.0835  157.6971 C   0  0  0  0  0  0  0  0  0  0  0  0
  131.4812  132.1355  158.0679 C   0  0  0  0  0  0  0  0  0  0  0  0
  132.0014  132.1418  159.3489 C   0  0  0  0  0  0  0  0  0  0  0  0
  131.5867  133.0962  160.2585 C   0  0  0  0  0  0  0  0  0  0  0  0
  130.6514  134.0444  159.8875 C   0  0  0  0  0  0  0  0  0  0  0  0
  130.1989  135.0848  160.8795 C   0  0  1  0  0  0  0  0  0  0  0  0
  129.1696  135.3702  160.6625 H   0  0  0  0  0  0  0  0  0  0  0  0
  130.2780  134.5327  162.2385 N   0  0  0  0  0  0  0  0  0  0  0  0
  131.2323  134.5747  162.5634 H   0  0  0  0  0  0  0  0  0  0  0  0
  129.9674  133.5728  162.2302 H   0  0  0  0  0  0  0  0  0  0  0  0
  129.4200  135.3173  163.1364 C   0  0  0  0  0  0  0  0  0  0  0  0
  127.9947  135.2547  162.6509 C   0  0  0  0  0  0  0  0  0  0  0  0
  127.1403  136.2929  162.5478 C   0  0  0  0  0  0  0  0  0  0  0  0
  127.4452  137.7262  162.8995 C   0  0  0  0  0  0  0  0  0  0  0  0
  125.9551  135.8231  162.0644 N   0  0  0  0  0  0  0  0  0  0  0  0
  125.1647  136.3574  161.8891 H   0  0  0  0  0  0  0  0  0  0  0  0
  126.0633  134.4777  161.8716 C   0  0  0  0  0  0  0  0  0  0  0  0
  124.9789  133.5697  161.3515 C   0  0  0  0  0  0  0  0  0  0  0  0
  127.3100  134.1007  162.2211 C   0  0  0  0  0  0  0  0  0  0  0  0
  127.8685  132.7023  162.1622 C   0  0  0  0  0  0  0  0  0  0  0  0
  131.0886  136.2969  160.7771 C   0  0  0  0  0  0  0  0  0  0  0  0
  132.4512  136.1892  161.0106 C   0  0  0  0  0  0  0  0  0  0  0  0
  133.2315  137.3299  160.9005 C   0  0  0  0  0  0  0  0  0  0  0  0
  132.6281  138.5299  160.5738 C   0  0  0  0  0  0  0  0  0  0  0  0
  131.3281  138.5957  160.3635 N   0  0  0  0  0  0  0  0  0  0  0  0
  130.5558  137.5305  160.4549 C   0  0  0  0  0  0  0  0  0  0  0  0
  126.7788  135.7917  156.9820 H   0  0  0  0  0  0  0  0  0  0  0  0
  128.0824  136.8790  156.4467 H   0  0  0  0  0  0  0  0  0  0  0  0
  127.3652  135.7189  155.3030 H   0  0  0  0  0  0  0  0  0  0  0  0
  129.5723  134.9260  156.1083 H   0  0  0  0  0  0  0  0  0  0  0  0
  128.2687  133.8386  156.6436 H   0  0  0  0  0  0  0  0  0  0  0  0
  128.2262  134.9746  158.8474 H   0  0  0  0  0  0  0  0  0  0  0  0
  130.4483  136.5234  157.8017 H   0  0  0  0  0  0  0  0  0  0  0  0
  130.1402  133.0788  156.6963 H   0  0  0  0  0  0  0  0  0  0  0  0
  131.8059  131.3901  157.3569 H   0  0  0  0  0  0  0  0  0  0  0  0
  132.7320  131.4011  159.6387 H   0  0  0  0  0  0  0  0  0  0  0  0
  131.9930  133.1011  161.2592 H   0  0  0  0  0  0  0  0  0  0  0  0
  129.7556  136.3542  163.1455 H   0  0  0  0  0  0  0  0  0  0  0  0
  129.4786  134.9076  164.1448 H   0  0  0  0  0  0  0  0  0  0  0  0
  127.8389  138.2398  162.0223 H   0  0  0  0  0  0  0  0  0  0  0  0
  126.5323  138.2210  163.2310 H   0  0  0  0  0  0  0  0  0  0  0  0
  128.1847  137.7545  163.6996 H   0  0  0  0  0  0  0  0  0  0  0  0
  124.3970  133.1827  162.1878 H   0  0  0  0  0  0  0  0  0  0  0  0
  124.3256  134.1301  160.6828 H   0  0  0  0  0  0  0  0  0  0  0  0
  125.4299  132.7397  160.8076 H   0  0  0  0  0  0  0  0  0  0  0  0
  128.3233  132.5335  161.1861 H   0  0  0  0  0  0  0  0  0  0  0  0
  128.6217  132.5788  162.9403 H   0  0  0  0  0  0  0  0  0  0  0  0
  127.0643  131.9832  162.3175 H   0  0  0  0  0  0  0  0  0  0  0  0
  132.8947  135.2389  161.2681 H   0  0  0  0  0  0  0  0  0  0  0  0
  134.2967  137.2823  161.0719 H   0  0  0  0  0  0  0  0  0  0  0  0
  133.2284  139.4236  160.4895 H   0  0  0  0  0  0  0  0  0  0  0  0
  129.4950  137.6234  160.2756 H   0  0  0  0  0  0  0  0  0  0  0  0
  1  2  1  0
  1 32  1  0
  1 33  1  0
  1 34  1  0
  2  3  1  0
  2 35  1  0
  2 36  1  0
  3  4  1  0
  3  5  1  0
  3 37  1  1
  4 38  1  0
  5 10  2  0
  5  6  1  0
  6  7  2  0
  6 39  1  0
  7  8  1  0
  7 40  1  0
  8  9  2  0
  8 41  1  0
  9 10  1  0
  9 42  1  0
 10 11  1  0
 11 12  1  6
 11 13  1  0
 11 26  1  0
 13 14  1  0
 13 15  1  0
 13 16  1  0
 16 17  1  0
 16 43  1  0
 16 44  1  0
 17 24  1  0
 17 18  2  0
 18 19  1  0
 18 20  1  0
 19 45  1  0
 19 46  1  0
 19 47  1  0
 20 21  1  0
 20 22  1  0
 22 23  1  0
 22 24  2  0
 23 48  1  0
 23 49  1  0
 23 50  1  0
 24 25  1  0
 25 51  1  0
 25 52  1  0
 25 53  1  0
 26 31  1  0
 26 27  2  0
 27 28  1  0
 27 54  1  0
 28 29  2  0
 28 55  1  0
 29 30  1  0
 29 56  1  0
 30 31  2  0
 31 57  1  0
M  CHG  1  13   1
M  END
>  <DOCK_score>  (1) 
-42.047462

>  <SMILES>  (1) 
CCC(O)c1ccccc1[C@@H]([NH2+]Cc1c(C)[nH]c(C)c1C)c1cccnc1

$$$$
