CCc1ccc(-c2c[nH]c(N[C@@H](Cc3ccc(Cl)cc3)c3ccccc3)[nH+]2)cc1
     RDKit          3D

 54 57  0  0  1  0  0  0  0  0999 V2000
  130.4039  128.5735  151.3559 C   0  0  0  0  0  0  0  0  0  0  0  0
  131.5078  129.5643  151.7308 C   0  0  0  0  0  0  0  0  0  0  0  0
  131.1521  130.2459  153.0269 C   0  0  0  0  0  0  0  0  0  0  0  0
  131.5577  129.6950  154.2287 C   0  0  0  0  0  0  0  0  0  0  0  0
  131.2398  130.3177  155.4186 C   0  0  0  0  0  0  0  0  0  0  0  0
  130.4987  131.4980  155.4081 C   0  0  0  0  0  0  0  0  0  0  0  0
  130.1491  132.1690  156.6840 C   0  0  0  0  0  0  0  0  0  0  0  0
  129.4247  131.6310  157.6963 C   0  0  0  0  0  0  0  0  0  0  0  0
  129.3399  132.5880  158.6781 N   0  0  0  0  0  0  0  0  0  0  0  0
  128.8825  132.4992  159.5289 H   0  0  0  0  0  0  0  0  0  0  0  0
  130.0156  133.6838  158.2367 C   0  0  0  0  0  0  0  0  0  0  0  0
  130.1683  134.8711  158.9320 N   0  0  0  0  0  0  0  0  0  0  0  0
  129.1322  135.3089  159.8706 C   0  0  1  0  0  0  0  0  0  0  0  0
  129.0105  134.5595  160.6527 H   0  0  0  0  0  0  0  0  0  0  0  0
  129.5443  136.6411  160.5002 C   0  0  0  0  0  0  0  0  0  0  0  0
  130.8477  136.4670  161.2362 C   0  0  0  0  0  0  0  0  0  0  0  0
  131.7272  137.5280  161.3444 C   0  0  0  0  0  0  0  0  0  0  0  0
  132.9202  137.3706  162.0241 C   0  0  0  0  0  0  0  0  0  0  0  0
  133.2395  136.1475  162.5865 C   0  0  0  0  0  0  0  0  0  0  0  0
  134.7412  135.9467  163.4339 Cl  0  0  0  0  0  0  0  0  0  0  0  0
  132.3614  135.0844  162.4731 C   0  0  0  0  0  0  0  0  0  0  0  0
  131.1660  135.2447  161.7980 C   0  0  0  0  0  0  0  0  0  0  0  0
  127.8287  135.4830  159.1346 C   0  0  0  0  0  0  0  0  0  0  0  0
  126.6306  135.2724  159.7913 C   0  0  0  0  0  0  0  0  0  0  0  0
  125.4349  135.4361  159.1172 C   0  0  0  0  0  0  0  0  0  0  0  0
  125.4374  135.8022  157.7842 C   0  0  0  0  0  0  0  0  0  0  0  0
  126.6356  136.0076  157.1261 C   0  0  0  0  0  0  0  0  0  0  0  0
  127.8313  135.8477  157.8013 C   0  0  0  0  0  0  0  0  0  0  0  0
  130.5026  133.4275  157.0472 N   0  0  0  0  0  0  0  0  0  0  0  0
  131.0296  134.0406  156.5111 H   0  0  0  0  0  0  0  0  0  0  0  0
  130.0876  132.0459  154.1942 C   0  0  0  0  0  0  0  0  0  0  0  0
  130.4162  131.4176  153.0101 C   0  0  0  0  0  0  0  0  0  0  0  0
  129.4606  129.1069  151.2391 H   0  0  0  0  0  0  0  0  0  0  0  0
  130.6611  128.0806  150.4183 H   0  0  0  0  0  0  0  0  0  0  0  0
  130.3040  127.8266  152.1434 H   0  0  0  0  0  0  0  0  0  0  0  0
  132.4508  129.0315  151.8471 H   0  0  0  0  0  0  0  0  0  0  0  0
  131.6075  130.3118  150.9427 H   0  0  0  0  0  0  0  0  0  0  0  0
  132.1278  128.7778  154.2359 H   0  0  0  0  0  0  0  0  0  0  0  0
  131.5610  129.8890  156.3564 H   0  0  0  0  0  0  0  0  0  0  0  0
  128.9962  130.6401  157.7249 H   0  0  0  0  0  0  0  0  0  0  0  0
  130.9615  135.4131  158.7977 H   0  0  0  0  0  0  0  0  0  0  0  0
  129.6657  137.3904  159.7181 H   0  0  0  0  0  0  0  0  0  0  0  0
  128.7733  136.9667  161.1987 H   0  0  0  0  0  0  0  0  0  0  0  0
  131.4799  138.4816  160.9014 H   0  0  0  0  0  0  0  0  0  0  0  0
  133.6052  138.2008  162.1123 H   0  0  0  0  0  0  0  0  0  0  0  0
  132.6101  134.1293  162.9117 H   0  0  0  0  0  0  0  0  0  0  0  0
  130.4807  134.4147  161.7091 H   0  0  0  0  0  0  0  0  0  0  0  0
  126.6287  134.9832  160.8318 H   0  0  0  0  0  0  0  0  0  0  0  0
  124.4988  135.2753  159.6313 H   0  0  0  0  0  0  0  0  0  0  0  0
  124.5033  135.9274  157.2569 H   0  0  0  0  0  0  0  0  0  0  0  0
  126.6376  136.2932  156.0846 H   0  0  0  0  0  0  0  0  0  0  0  0
  128.7673  136.0082  157.2872 H   0  0  0  0  0  0  0  0  0  0  0  0
  129.5130  132.9603  154.1802 H   0  0  0  0  0  0  0  0  0  0  0  0
  130.0980  131.8411  152.0689 H   0  0  0  0  0  0  0  0  0  0  0  0
  1  2  1  0
  1 33  1  0
  1 34  1  0
  1 35  1  0
  2  3  1  0
  2 36  1  0
  2 37  1  0
  3 32  2  0
  3  4  1  0
  4  5  2  0
  4 38  1  0
  5  6  1  0
  5 39  1  0
  6  7  1  0
  6 31  2  0
  7 29  1  0
  7  8  2  0
  8  9  1  0
  8 40  1  0
  9 10  1  0
  9 11  1  0
 11 12  1  0
 11 29  2  0
 12 13  1  0
 12 41  1  0
 13 14  1  1
 13 15  1  0
 13 23  1  0
 15 16  1  0
 15 42  1  0
 15 43  1  0
 16 22  1  0
 16 17  2  0
 17 18  1  0
 17 44  1  0
 18 19  2  0
 18 45  1  0
 19 20  1  0
 19 21  1  0
 21 22  2  0
 21 46  1  0
 22 47  1  0
 23 28  1  0
 23 24  2  0
 24 25  1  0
 24 48  1  0
 25 26  2  0
 25 49  1  0
 26 27  1  0
 26 50  1  0
 27 28  2  0
 27 51  1  0
 28 52  1  0
 29 30  1  0
 31 32  1  0
 31 53  1  0
 32 54  1  0
M  CHG  1  29   1
M  END
>  <DOCK_score>  (1) 
-62.266506

>  <SMILES>  (1) 
CCc1ccc(-c2c[nH]c(N[C@@H](Cc3ccc(Cl)cc3)c3ccccc3)[nH+]2)cc1

$$$$
