C[C@H]([NH2+]Cc1c[nH]nc1-c1ccc(NCCC2=CCCC2)o1)c1ccccc1
     RDKit          3D

 57 60  0  0  1  0  0  0  0  0999 V2000
  133.4744  135.0895  162.4560 C   0  0  0  0  0  0  0  0  0  0  0  0
  132.6275  136.0848  161.6605 C   0  0  2  0  0  0  0  0  0  0  0  0
  131.7422  136.3515  162.2378 H   0  0  0  0  0  0  0  0  0  0  0  0
  132.2173  135.4727  160.3896 N   0  0  0  0  0  0  0  0  0  0  0  0
  132.9847  134.9388  160.0103 H   0  0  0  0  0  0  0  0  0  0  0  0
  131.9557  136.1962  159.7368 H   0  0  0  0  0  0  0  0  0  0  0  0
  131.0705  134.5845  160.6216 C   0  0  0  0  0  0  0  0  0  0  0  0
  130.6496  133.9566  159.3179 C   0  0  0  0  0  0  0  0  0  0  0  0
  131.4721  133.4153  158.3940 C   0  0  0  0  0  0  0  0  0  0  0  0
  130.7137  132.9662  157.3705 N   0  0  0  0  0  0  0  0  0  0  0  0
  131.0415  132.5344  156.5661 H   0  0  0  0  0  0  0  0  0  0  0  0
  129.3717  133.2327  157.6709 N   0  0  0  0  0  0  0  0  0  0  0  0
  129.3261  133.8274  158.8468 C   0  0  0  0  0  0  0  0  0  0  0  0
  128.1059  134.2834  159.5443 C   0  0  0  0  0  0  0  0  0  0  0  0
  126.8742  133.7173  159.4463 C   0  0  0  0  0  0  0  0  0  0  0  0
  126.0147  134.4640  160.2761 C   0  0  0  0  0  0  0  0  0  0  0  0
  126.7602  135.4514  160.8317 C   0  0  0  0  0  0  0  0  0  0  0  0
  126.2973  136.4186  161.7164 N   0  0  0  0  0  0  0  0  0  0  0  0
  127.2167  137.4310  162.2418 C   0  0  0  0  0  0  0  0  0  0  0  0
  126.4594  138.3668  163.1859 C   0  0  0  0  0  0  0  0  0  0  0  0
  127.4051  139.4082  163.7265 C   0  0  0  0  0  0  0  0  0  0  0  0
  127.6712  139.5777  164.9929 C   0  0  0  0  0  0  0  0  0  0  0  0
  128.6535  140.7077  165.1961 C   0  0  0  0  0  0  0  0  0  0  0  0
  129.2829  140.9347  163.8001 C   0  0  0  0  0  0  0  0  0  0  0  0
  128.1700  140.3931  162.8731 C   0  0  0  0  0  0  0  0  0  0  0  0
  128.0232  135.3340  160.3874 O   0  0  0  0  0  0  0  0  0  0  0  0
  133.4379  137.3245  161.3826 C   0  0  0  0  0  0  0  0  0  0  0  0
  133.4145  138.3801  162.2747 C   0  0  0  0  0  0  0  0  0  0  0  0
  134.1609  139.5157  162.0216 C   0  0  0  0  0  0  0  0  0  0  0  0
  134.9245  139.5991  160.8721 C   0  0  0  0  0  0  0  0  0  0  0  0
  134.9438  138.5455  159.9775 C   0  0  0  0  0  0  0  0  0  0  0  0
  134.2004  137.4084  160.2325 C   0  0  0  0  0  0  0  0  0  0  0  0
  132.8582  134.2386  162.7462 H   0  0  0  0  0  0  0  0  0  0  0  0
  134.3040  134.7439  161.8392 H   0  0  0  0  0  0  0  0  0  0  0  0
  133.8646  135.5771  163.3495 H   0  0  0  0  0  0  0  0  0  0  0  0
  130.2413  135.1612  161.0315 H   0  0  0  0  0  0  0  0  0  0  0  0
  131.3531  133.8029  161.3268 H   0  0  0  0  0  0  0  0  0  0  0  0
  132.5484  133.3558  158.4597 H   0  0  0  0  0  0  0  0  0  0  0  0
  126.6067  132.8573  158.8502 H   0  0  0  0  0  0  0  0  0  0  0  0
  124.9619  134.2852  160.4376 H   0  0  0  0  0  0  0  0  0  0  0  0
  125.3654  136.4232  161.9858 H   0  0  0  0  0  0  0  0  0  0  0  0
  127.6331  138.0074  161.4156 H   0  0  0  0  0  0  0  0  0  0  0  0
  128.0240  136.9411  162.7862 H   0  0  0  0  0  0  0  0  0  0  0  0
  126.0429  137.7903  164.0120 H   0  0  0  0  0  0  0  0  0  0  0  0
  125.6521  138.8567  162.6416 H   0  0  0  0  0  0  0  0  0  0  0  0
  127.2422  138.9904  165.7913 H   0  0  0  0  0  0  0  0  0  0  0  0
  128.1351  141.6057  165.5321 H   0  0  0  0  0  0  0  0  0  0  0  0
  129.4206  140.4195  165.9147 H   0  0  0  0  0  0  0  0  0  0  0  0
  130.2027  140.3615  163.6835 H   0  0  0  0  0  0  0  0  0  0  0  0
  129.4595  141.9953  163.6210 H   0  0  0  0  0  0  0  0  0  0  0  0
  128.6060  139.8896  162.0104 H   0  0  0  0  0  0  0  0  0  0  0  0
  127.5165  141.2038  162.5506 H   0  0  0  0  0  0  0  0  0  0  0  0
  132.8153  138.3165  163.1710 H   0  0  0  0  0  0  0  0  0  0  0  0
  134.1455  140.3390  162.7204 H   0  0  0  0  0  0  0  0  0  0  0  0
  135.5055  140.4874  160.6730 H   0  0  0  0  0  0  0  0  0  0  0  0
  135.5400  138.6107  159.0792 H   0  0  0  0  0  0  0  0  0  0  0  0
  134.2155  136.5852  159.5335 H   0  0  0  0  0  0  0  0  0  0  0  0
  1  2  1  0
  1 33  1  0
  1 34  1  0
  1 35  1  0
  2  3  1  1
  2  4  1  0
  2 27  1  0
  4  5  1  0
  4  6  1  0
  4  7  1  0
  7  8  1  0
  7 36  1  0
  7 37  1  0
  8 13  1  0
  8  9  2  0
  9 10  1  0
  9 38  1  0
 10 11  1  0
 10 12  1  0
 12 13  2  0
 13 14  1  0
 14 26  1  0
 14 15  2  0
 15 16  1  0
 15 39  1  0
 16 17  2  0
 16 40  1  0
 17 18  1  0
 17 26  1  0
 18 19  1  0
 18 41  1  0
 19 20  1  0
 19 42  1  0
 19 43  1  0
 20 21  1  0
 20 44  1  0
 20 45  1  0
 21 25  1  0
 21 22  2  0
 22 23  1  0
 22 46  1  0
 23 24  1  0
 23 47  1  0
 23 48  1  0
 24 25  1  0
 24 49  1  0
 24 50  1  0
 25 51  1  0
 25 52  1  0
 27 32  1  0
 27 28  2  0
 28 29  1  0
 28 53  1  0
 29 30  2  0
 29 54  1  0
 30 31  1  0
 30 55  1  0
 31 32  2  0
 31 56  1  0
 32 57  1  0
M  CHG  1   4   1
M  END
>  <DOCK_score>  (1) 
-43.705502

>  <SMILES>  (1) 
C[C@H]([NH2+]Cc1c[nH]nc1-c1ccc(NCCC2=CCCC2)o1)c1ccccc1

$$$$
