Nc1ccc(-c2c[nH]c(N[C@H](/C=C/C(=O)NC3CC3)c3ccc(F)cc3)[nH+]2)cc1
     RDKit          3D

 52 55  0  0  1  0  0  0  0  0999 V2000
  131.2869  129.3692  152.0343 N   0  0  0  0  0  0  0  0  0  0  0  0
  130.9424  130.1497  153.1405 C   0  0  0  0  0  0  0  0  0  0  0  0
  130.2578  131.3461  152.9586 C   0  0  0  0  0  0  0  0  0  0  0  0
  129.9170  132.1189  154.0486 C   0  0  0  0  0  0  0  0  0  0  0  0
  130.2591  131.6997  155.3332 C   0  0  0  0  0  0  0  0  0  0  0  0
  129.8940  132.5296  156.5075 C   0  0  0  0  0  0  0  0  0  0  0  0
  129.1000  132.1480  157.5382 C   0  0  0  0  0  0  0  0  0  0  0  0
  129.0267  133.2156  158.4014 N   0  0  0  0  0  0  0  0  0  0  0  0
  128.5306  133.2482  159.2343 H   0  0  0  0  0  0  0  0  0  0  0  0
  129.7789  134.2181  157.8714 C   0  0  0  0  0  0  0  0  0  0  0  0
  129.9675  135.4687  158.4344 N   0  0  0  0  0  0  0  0  0  0  0  0
  129.3284  135.8018  159.7098 C   0  0  2  0  0  0  0  0  0  0  0  0
  128.2464  135.7201  159.6064 H   0  0  0  0  0  0  0  0  0  0  0  0
  129.6907  137.2115  160.1002 C   0  0  0  0  0  0  0  0  0  0  0  0
  128.8427  137.9411  160.8195 C   0  0  0  0  0  0  0  0  0  0  0  0
  129.1964  139.3172  161.2006 C   0  0  0  0  0  0  0  0  0  0  0  0
  128.3232  140.1507  161.3486 O   0  0  0  0  0  0  0  0  0  0  0  0
  130.4881  139.6543  161.3860 N   0  0  0  0  0  0  0  0  0  0  0  0
  130.8402  141.0248  161.7654 C   0  0  0  0  0  0  0  0  0  0  0  0
  132.1505  141.2324  162.5275 C   0  0  0  0  0  0  0  0  0  0  0  0
  130.8110  141.3752  163.2545 C   0  0  0  0  0  0  0  0  0  0  0  0
  129.8047  134.8476  160.7747 C   0  0  0  0  0  0  0  0  0  0  0  0
  128.9773  134.5263  161.8345 C   0  0  0  0  0  0  0  0  0  0  0  0
  129.4113  133.6478  162.8090 C   0  0  0  0  0  0  0  0  0  0  0  0
  130.6792  133.0973  162.7290 C   0  0  0  0  0  0  0  0  0  0  0  0
  131.1063  132.2418  163.6835 F   0  0  0  0  0  0  0  0  0  0  0  0
  131.5089  133.4238  161.6698 C   0  0  0  0  0  0  0  0  0  0  0  0
  131.0709  134.2986  160.6938 C   0  0  0  0  0  0  0  0  0  0  0  0
  130.2908  133.8064  156.7371 N   0  0  0  0  0  0  0  0  0  0  0  0
  130.8637  134.3304  156.1556 H   0  0  0  0  0  0  0  0  0  0  0  0
  130.9500  130.5022  155.5126 C   0  0  0  0  0  0  0  0  0  0  0  0
  131.2841  129.7300  154.4200 C   0  0  0  0  0  0  0  0  0  0  0  0
  131.0486  129.6617  151.1406 H   0  0  0  0  0  0  0  0  0  0  0  0
  131.7648  128.5345  152.1601 H   0  0  0  0  0  0  0  0  0  0  0  0
  129.9929  131.6707  151.9631 H   0  0  0  0  0  0  0  0  0  0  0  0
  129.3849  133.0481  153.9071 H   0  0  0  0  0  0  0  0  0  0  0  0
  128.6172  131.1895  157.6579 H   0  0  0  0  0  0  0  0  0  0  0  0
  130.5229  136.1244  157.9844 H   0  0  0  0  0  0  0  0  0  0  0  0
  130.6389  137.6294  159.7958 H   0  0  0  0  0  0  0  0  0  0  0  0
  127.8945  137.5233  161.1240 H   0  0  0  0  0  0  0  0  0  0  0  0
  131.1844  138.9896  161.2680 H   0  0  0  0  0  0  0  0  0  0  0  0
  130.5401  141.7997  161.0601 H   0  0  0  0  0  0  0  0  0  0  0  0
  132.7506  140.3492  162.7467 H   0  0  0  0  0  0  0  0  0  0  0  0
  132.7122  142.1439  162.3240 H   0  0  0  0  0  0  0  0  0  0  0  0
  130.4920  142.3808  163.5288 H   0  0  0  0  0  0  0  0  0  0  0  0
  130.5293  140.5861  163.9518 H   0  0  0  0  0  0  0  0  0  0  0  0
  127.9898  134.9590  161.8988 H   0  0  0  0  0  0  0  0  0  0  0  0
  128.7631  133.3937  163.6347 H   0  0  0  0  0  0  0  0  0  0  0  0
  132.4984  132.9953  161.6066 H   0  0  0  0  0  0  0  0  0  0  0  0
  131.7179  134.5533  159.8673 H   0  0  0  0  0  0  0  0  0  0  0  0
  131.2196  130.1775  156.5066 H   0  0  0  0  0  0  0  0  0  0  0  0
  131.8157  128.8003  154.5588 H   0  0  0  0  0  0  0  0  0  0  0  0
  1  2  1  0
  1 33  1  0
  1 34  1  0
  2 32  2  0
  2  3  1  0
  3  4  2  0
  3 35  1  0
  4  5  1  0
  4 36  1  0
  5  6  1  0
  5 31  2  0
  6 29  1  0
  6  7  2  0
  7  8  1  0
  7 37  1  0
  8  9  1  0
  8 10  1  0
 10 11  1  0
 10 29  2  0
 11 12  1  0
 11 38  1  0
 12 13  1  6
 12 14  1  0
 12 22  1  0
 14 15  2  0
 14 39  1  0
 15 16  1  0
 15 40  1  0
 16 17  2  0
 16 18  1  0
 18 19  1  0
 18 41  1  0
 19 21  1  0
 19 20  1  0
 19 42  1  0
 20 21  1  0
 20 43  1  0
 20 44  1  0
 21 45  1  0
 21 46  1  0
 22 28  1  0
 22 23  2  0
 23 24  1  0
 23 47  1  0
 24 25  2  0
 24 48  1  0
 25 26  1  0
 25 27  1  0
 27 28  2  0
 27 49  1  0
 28 50  1  0
 29 30  1  0
 31 32  1  0
 31 51  1  0
 32 52  1  0
M  CHG  1  29   1
M  END
>  <DOCK_score>  (1) 
-58.720577

>  <SMILES>  (1) 
Nc1ccc(-c2c[nH]c(N[C@H](/C=C/C(=O)NC3CC3)c3ccc(F)cc3)[nH+]2)cc1

$$$$
