Nc1ccccc1Nc1ccccc1Nc1[nH]c(-c2ccccc2)c(-c2ccccc2)[nH+]1
     RDKit          3D

 56 60  0  0  1  0  0  0  0  0999 V2000
  126.4163  136.0396  160.9877 N   0  0  0  0  0  0  0  0  0  0  0  0
  126.1361  134.7202  160.6132 C   0  0  0  0  0  0  0  0  0  0  0  0
  124.8872  134.1749  160.8697 C   0  0  0  0  0  0  0  0  0  0  0  0
  124.6145  132.8696  160.5040 C   0  0  0  0  0  0  0  0  0  0  0  0
  125.5822  132.1062  159.8773 C   0  0  0  0  0  0  0  0  0  0  0  0
  126.8279  132.6436  159.6121 C   0  0  0  0  0  0  0  0  0  0  0  0
  127.1103  133.9521  159.9753 C   0  0  0  0  0  0  0  0  0  0  0  0
  128.3712  134.4985  159.7077 N   0  0  0  0  0  0  0  0  0  0  0  0
  129.1018  134.0612  158.5976 C   0  0  0  0  0  0  0  0  0  0  0  0
  128.5785  134.2025  157.3206 C   0  0  0  0  0  0  0  0  0  0  0  0
  129.3025  133.7701  156.2252 C   0  0  0  0  0  0  0  0  0  0  0  0
  130.5485  133.1957  156.3977 C   0  0  0  0  0  0  0  0  0  0  0  0
  131.0777  133.0504  157.6666 C   0  0  0  0  0  0  0  0  0  0  0  0
  130.3587  133.4812  158.7714 C   0  0  0  0  0  0  0  0  0  0  0  0
  130.8926  133.3342  160.0579 N   0  0  0  0  0  0  0  0  0  0  0  0
  131.6649  134.3393  160.6035 C   0  0  0  0  0  0  0  0  0  0  0  0
  132.2171  134.3127  161.8133 N   0  0  0  0  0  0  0  0  0  0  0  0
  132.1445  133.5880  162.4541 H   0  0  0  0  0  0  0  0  0  0  0  0
  132.9058  135.4768  161.9990 C   0  0  0  0  0  0  0  0  0  0  0  0
  133.6728  135.8647  163.2021 C   0  0  0  0  0  0  0  0  0  0  0  0
  135.0412  136.1239  163.1078 C   0  0  0  0  0  0  0  0  0  0  0  0
  135.7496  136.4909  164.2333 C   0  0  0  0  0  0  0  0  0  0  0  0
  135.1092  136.5908  165.4556 C   0  0  0  0  0  0  0  0  0  0  0  0
  133.7541  136.3297  165.5571 C   0  0  0  0  0  0  0  0  0  0  0  0
  133.0327  135.9678  164.4383 C   0  0  0  0  0  0  0  0  0  0  0  0
  132.7446  136.2248  160.8491 C   0  0  0  0  0  0  0  0  0  0  0  0
  133.3057  137.5670  160.5851 C   0  0  0  0  0  0  0  0  0  0  0  0
  134.1765  137.7642  159.5120 C   0  0  0  0  0  0  0  0  0  0  0  0
  134.6919  139.0203  159.2678 C   0  0  0  0  0  0  0  0  0  0  0  0
  134.3569  140.0809  160.0907 C   0  0  0  0  0  0  0  0  0  0  0  0
  133.4990  139.8912  161.1595 C   0  0  0  0  0  0  0  0  0  0  0  0
  132.9715  138.6416  161.4111 C   0  0  0  0  0  0  0  0  0  0  0  0
  131.9675  135.4870  160.0029 N   0  0  0  0  0  0  0  0  0  0  0  0
  131.6844  135.7541  159.1144 H   0  0  0  0  0  0  0  0  0  0  0  0
  127.2890  136.4210  160.8037 H   0  0  0  0  0  0  0  0  0  0  0  0
  125.7378  136.5724  161.4311 H   0  0  0  0  0  0  0  0  0  0  0  0
  124.1291  134.7682  161.3591 H   0  0  0  0  0  0  0  0  0  0  0  0
  123.6426  132.4451  160.7083 H   0  0  0  0  0  0  0  0  0  0  0  0
  125.3639  131.0872  159.5939 H   0  0  0  0  0  0  0  0  0  0  0  0
  127.5812  132.0447  159.1218 H   0  0  0  0  0  0  0  0  0  0  0  0
  128.7383  135.1803  160.2920 H   0  0  0  0  0  0  0  0  0  0  0  0
  127.6074  134.6544  157.1819 H   0  0  0  0  0  0  0  0  0  0  0  0
  128.8935  133.8808  155.2318 H   0  0  0  0  0  0  0  0  0  0  0  0
  131.1097  132.8593  155.5385 H   0  0  0  0  0  0  0  0  0  0  0  0
  132.0511  132.6010  157.7975 H   0  0  0  0  0  0  0  0  0  0  0  0
  130.7193  132.5259  160.5654 H   0  0  0  0  0  0  0  0  0  0  0  0
  135.5430  136.0419  162.1551 H   0  0  0  0  0  0  0  0  0  0  0  0
  136.8073  136.6967  164.1607 H   0  0  0  0  0  0  0  0  0  0  0  0
  135.6693  136.8740  166.3346 H   0  0  0  0  0  0  0  0  0  0  0  0
  133.2602  136.4097  166.5142 H   0  0  0  0  0  0  0  0  0  0  0  0
  131.9750  135.7649  164.5186 H   0  0  0  0  0  0  0  0  0  0  0  0
  134.4421  136.9361  158.8716 H   0  0  0  0  0  0  0  0  0  0  0  0
  135.3616  139.1752  158.4346 H   0  0  0  0  0  0  0  0  0  0  0  0
  134.7667  141.0614  159.8978 H   0  0  0  0  0  0  0  0  0  0  0  0
  133.2411  140.7234  161.7979 H   0  0  0  0  0  0  0  0  0  0  0  0
  132.3013  138.4949  162.2452 H   0  0  0  0  0  0  0  0  0  0  0  0
  1  2  1  0
  1 35  1  0
  1 36  1  0
  2  7  2  0
  2  3  1  0
  3  4  2  0
  3 37  1  0
  4  5  1  0
  4 38  1  0
  5  6  2  0
  5 39  1  0
  6  7  1  0
  6 40  1  0
  7  8  1  0
  8  9  1  0
  8 41  1  0
  9 14  1  0
  9 10  2  0
 10 11  1  0
 10 42  1  0
 11 12  2  0
 11 43  1  0
 12 13  1  0
 12 44  1  0
 13 14  2  0
 13 45  1  0
 14 15  1  0
 15 46  1  0
 16 15  1  0
 16 33  1  0
 16 17  2  0
 17 18  1  0
 17 19  1  0
 19 20  1  0
 19 26  2  0
 20 25  1  0
 20 21  2  0
 21 22  1  0
 21 47  1  0
 22 23  2  0
 22 48  1  0
 23 24  1  0
 23 49  1  0
 24 25  2  0
 24 50  1  0
 25 51  1  0
 26 27  1  0
 26 33  1  0
 27 32  1  0
 27 28  2  0
 28 29  1  0
 28 52  1  0
 29 30  2  0
 29 53  1  0
 30 31  1  0
 30 54  1  0
 31 32  2  0
 31 55  1  0
 32 56  1  0
 33 34  1  0
M  CHG  1  17   1
M  END
>  <DOCK_score>  (1) 
-52.800083

>  <SMILES>  (1) 
Nc1ccccc1Nc1ccccc1Nc1[nH]c(-c2ccccc2)c(-c2ccccc2)[nH+]1

$$$$
