O=C1SCC[C@@H]1[NH+]=C(NC1CCOCC1)NC1CCC(Cc2ccccc2)C1
     RDKit          3D

 60 63  0  0  1  0  0  0  0  0999 V2000
  126.4193  136.0349  161.3768 O   0  0  0  0  0  0  0  0  0  0  0  0
  126.2607  134.9769  160.8046 C   0  0  0  0  0  0  0  0  0  0  0  0
  125.0269  133.8299  161.1393 S   0  0  0  0  0  0  0  0  0  0  0  0
  125.5159  132.5816  159.9099 C   0  0  0  0  0  0  0  0  0  0  0  0
  126.9804  132.9256  159.5795 C   0  0  0  0  0  0  0  0  0  0  0  0
  127.1155  134.4455  159.6864 C   0  0  2  0  0  0  0  0  0  0  0  0
  126.8023  134.9011  158.7469 H   0  0  0  0  0  0  0  0  0  0  0  0
  128.5164  134.7872  159.9451 N   0  0  0  0  0  0  0  0  0  0  0  0
  128.7552  135.2830  160.7438 H   0  0  0  0  0  0  0  0  0  0  0  0
  129.4420  134.4248  159.1018 C   0  0  0  0  0  0  0  0  0  0  0  0
  129.1036  133.7221  157.9698 N   0  0  0  0  0  0  0  0  0  0  0  0
  130.0548  132.7742  157.3842 C   0  0  0  0  0  0  0  0  0  0  0  0
  129.4327  132.1234  156.1450 C   0  0  0  0  0  0  0  0  0  0  0  0
  130.4011  131.0768  155.5874 C   0  0  0  0  0  0  0  0  0  0  0  0
  130.6942  130.1116  156.5995 O   0  0  0  0  0  0  0  0  0  0  0  0
  131.3215  130.6571  157.7619 C   0  0  0  0  0  0  0  0  0  0  0  0
  130.3893  131.6852  158.4081 C   0  0  0  0  0  0  0  0  0  0  0  0
  130.7566  134.7455  159.3446 N   0  0  0  0  0  0  0  0  0  0  0  0
  131.1173  135.4944  160.5509 C   0  0  2  0  0  0  0  0  0  0  0  0
  130.4591  136.8894  160.5233 C   0  0  0  0  0  0  0  0  0  0  0  0
  131.5239  137.8243  161.1490 C   0  0  0  0  0  0  0  0  0  0  0  0
  132.8507  137.2545  160.5885 C   0  0  1  0  0  0  0  0  0  0  0  0
  134.0223  137.6343  161.4962 C   0  0  0  0  0  0  0  0  0  0  0  0
  134.4854  139.0288  161.1617 C   0  0  0  0  0  0  0  0  0  0  0  0
  135.4688  139.2207  160.2095 C   0  0  0  0  0  0  0  0  0  0  0  0
  135.8905  140.5002  159.8994 C   0  0  0  0  0  0  0  0  0  0  0  0
  135.3355  141.5872  160.5487 C   0  0  0  0  0  0  0  0  0  0  0  0
  134.3555  141.3950  161.5044 C   0  0  0  0  0  0  0  0  0  0  0  0
  133.9306  140.1157  161.8113 C   0  0  0  0  0  0  0  0  0  0  0  0
  132.6379  135.7266  160.5923 C   0  0  0  0  0  0  0  0  0  0  0  0
  124.8958  132.6581  159.0166 H   0  0  0  0  0  0  0  0  0  0  0  0
  125.4466  131.5808  160.3360 H   0  0  0  0  0  0  0  0  0  0  0  0
  127.2198  132.6008  158.5669 H   0  0  0  0  0  0  0  0  0  0  0  0
  127.6473  132.4414  160.2928 H   0  0  0  0  0  0  0  0  0  0  0  0
  128.2349  133.8538  157.5587 H   0  0  0  0  0  0  0  0  0  0  0  0
  130.9664  133.3006  157.1009 H   0  0  0  0  0  0  0  0  0  0  0  0
  128.4948  131.6405  156.4192 H   0  0  0  0  0  0  0  0  0  0  0  0
  129.2436  132.8858  155.3892 H   0  0  0  0  0  0  0  0  0  0  0  0
  131.3232  131.5667  155.2745 H   0  0  0  0  0  0  0  0  0  0  0  0
  129.9453  130.5790  154.7315 H   0  0  0  0  0  0  0  0  0  0  0  0
  132.2555  131.1415  157.4775 H   0  0  0  0  0  0  0  0  0  0  0  0
  131.5288  129.8569  158.4727 H   0  0  0  0  0  0  0  0  0  0  0  0
  130.8836  132.1344  159.2695 H   0  0  0  0  0  0  0  0  0  0  0  0
  129.4711  131.1938  158.7304 H   0  0  0  0  0  0  0  0  0  0  0  0
  131.4454  134.4758  158.7171 H   0  0  0  0  0  0  0  0  0  0  0  0
  130.7987  134.9481  161.4385 H   0  0  0  0  0  0  0  0  0  0  0  0
  130.2435  137.1892  159.4978 H   0  0  0  0  0  0  0  0  0  0  0  0
  129.5485  136.8936  161.1224 H   0  0  0  0  0  0  0  0  0  0  0  0
  131.5043  137.7585  162.2369 H   0  0  0  0  0  0  0  0  0  0  0  0
  131.3773  138.8540  160.8229 H   0  0  0  0  0  0  0  0  0  0  0  0
  133.0213  137.6134  159.5735 H   0  0  0  0  0  0  0  0  0  0  0  0
  133.7018  137.5978  162.5374 H   0  0  0  0  0  0  0  0  0  0  0  0
  134.8423  136.9327  161.3435 H   0  0  0  0  0  0  0  0  0  0  0  0
  135.9053  138.3713  159.7052 H   0  0  0  0  0  0  0  0  0  0  0  0
  136.6559  140.6505  159.1526 H   0  0  0  0  0  0  0  0  0  0  0  0
  135.6674  142.5866  160.3089 H   0  0  0  0  0  0  0  0  0  0  0  0
  133.9218  142.2442  162.0116 H   0  0  0  0  0  0  0  0  0  0  0  0
  133.1653  139.9655  162.5582 H   0  0  0  0  0  0  0  0  0  0  0  0
  133.0570  135.2936  161.5006 H   0  0  0  0  0  0  0  0  0  0  0  0
  133.1076  135.2813  159.7154 H   0  0  0  0  0  0  0  0  0  0  0  0
  1  2  2  0
  2  6  1  0
  2  3  1  0
  3  4  1  0
  4  5  1  0
  4 31  1  0
  4 32  1  0
  5  6  1  0
  5 33  1  0
  5 34  1  0
  6  7  1  6
  6  8  1  0
  8  9  1  0
 10  8  2  0
 10 11  1  0
 10 18  1  0
 11 12  1  0
 11 35  1  0
 12 17  1  0
 12 13  1  0
 12 36  1  0
 13 14  1  0
 13 37  1  0
 13 38  1  0
 14 15  1  0
 14 39  1  0
 14 40  1  0
 15 16  1  0
 16 17  1  0
 16 41  1  0
 16 42  1  0
 17 43  1  0
 17 44  1  0
 18 19  1  0
 18 45  1  0
 19 30  1  0
 19 20  1  0
 19 46  1  1
 20 21  1  0
 20 47  1  0
 20 48  1  0
 21 22  1  0
 21 49  1  0
 21 50  1  0
 22 23  1  0
 22 30  1  0
 22 51  1  6
 23 24  1  0
 23 52  1  0
 23 53  1  0
 24 29  1  0
 24 25  2  0
 25 26  1  0
 25 54  1  0
 26 27  2  0
 26 55  1  0
 27 28  1  0
 27 56  1  0
 28 29  2  0
 28 57  1  0
 29 58  1  0
 30 59  1  0
 30 60  1  0
M  CHG  1   8   1
M  END
>  <DOCK_score>  (1) 
-44.466755

>  <SMILES>  (1) 
O=C1SCC[C@@H]1[NH+]=C(NC1CCOCC1)NC1CCC(Cc2ccccc2)C1

$$$$
