CCc1ccc(-c2c[nH]c(N[C@@H](c3ccccc3)c3ccccc3C)[nH+]2)cc1
     RDKit          3D

 54 57  0  0  1  0  0  0  0  0999 V2000
  130.4767  128.1187  151.1582 C   0  0  0  0  0  0  0  0  0  0  0  0
  130.8888  129.5861  151.0257 C   0  0  0  0  0  0  0  0  0  0  0  0
  130.6902  130.2847  152.3462 C   0  0  0  0  0  0  0  0  0  0  0  0
  130.8143  129.5747  153.5269 C   0  0  0  0  0  0  0  0  0  0  0  0
  130.6382  130.2104  154.7391 C   0  0  0  0  0  0  0  0  0  0  0  0
  130.3243  131.5680  154.7720 C   0  0  0  0  0  0  0  0  0  0  0  0
  130.1289  132.2556  156.0716 C   0  0  0  0  0  0  0  0  0  0  0  0
  129.6701  131.6872  157.2142 C   0  0  0  0  0  0  0  0  0  0  0  0
  129.6456  132.6747  158.1688 N   0  0  0  0  0  0  0  0  0  0  0  0
  129.3630  132.5750  159.0913 H   0  0  0  0  0  0  0  0  0  0  0  0
  130.0907  133.8188  157.5812 C   0  0  0  0  0  0  0  0  0  0  0  0
  130.2177  135.0485  158.2041 N   0  0  0  0  0  0  0  0  0  0  0  0
  129.8578  135.1947  159.6167 C   0  0  1  0  0  0  0  0  0  0  0  0
  130.1927  134.3171  160.1696 H   0  0  0  0  0  0  0  0  0  0  0  0
  130.5207  136.4258  160.1790 C   0  0  0  0  0  0  0  0  0  0  0  0
  131.7751  136.3346  160.7526 C   0  0  0  0  0  0  0  0  0  0  0  0
  132.3848  137.4645  161.2650 C   0  0  0  0  0  0  0  0  0  0  0  0
  131.7362  138.6841  161.2115 C   0  0  0  0  0  0  0  0  0  0  0  0
  130.4798  138.7745  160.6421 C   0  0  0  0  0  0  0  0  0  0  0  0
  129.8718  137.6453  160.1265 C   0  0  0  0  0  0  0  0  0  0  0  0
  128.3620  135.3275  159.7429 C   0  0  0  0  0  0  0  0  0  0  0  0
  127.5676  135.2991  158.6117 C   0  0  0  0  0  0  0  0  0  0  0  0
  126.1954  135.4169  158.7278 C   0  0  0  0  0  0  0  0  0  0  0  0
  125.6180  135.5720  159.9749 C   0  0  0  0  0  0  0  0  0  0  0  0
  126.4125  135.6054  161.1048 C   0  0  0  0  0  0  0  0  0  0  0  0
  127.7849  135.4835  160.9890 C   0  0  0  0  0  0  0  0  0  0  0  0
  128.6512  135.5204  162.2214 C   0  0  0  0  0  0  0  0  0  0  0  0
  130.3832  133.5631  156.3294 N   0  0  0  0  0  0  0  0  0  0  0  0
  130.7253  134.2065  155.6890 H   0  0  0  0  0  0  0  0  0  0  0  0
  130.1953  132.2771  153.5790 C   0  0  0  0  0  0  0  0  0  0  0  0
  130.3787  131.6322  152.3728 C   0  0  0  0  0  0  0  0  0  0  0  0
  131.0892  127.6365  151.9200 H   0  0  0  0  0  0  0  0  0  0  0  0
  129.4270  128.0605  151.4456 H   0  0  0  0  0  0  0  0  0  0  0  0
  130.6204  127.6133  150.2031 H   0  0  0  0  0  0  0  0  0  0  0  0
  131.9386  129.6441  150.7382 H   0  0  0  0  0  0  0  0  0  0  0  0
  130.2763  130.0682  150.2639 H   0  0  0  0  0  0  0  0  0  0  0  0
  131.0533  128.5218  153.5000 H   0  0  0  0  0  0  0  0  0  0  0  0
  130.7399  129.6561  155.6604 H   0  0  0  0  0  0  0  0  0  0  0  0
  129.3792  130.6557  157.3479 H   0  0  0  0  0  0  0  0  0  0  0  0
  130.5448  135.8133  157.7053 H   0  0  0  0  0  0  0  0  0  0  0  0
  132.2802  135.3810  160.7977 H   0  0  0  0  0  0  0  0  0  0  0  0
  133.3662  137.3938  161.7100 H   0  0  0  0  0  0  0  0  0  0  0  0
  132.2111  139.5663  161.6148 H   0  0  0  0  0  0  0  0  0  0  0  0
  129.9729  139.7273  160.6007 H   0  0  0  0  0  0  0  0  0  0  0  0
  128.8899  137.7159  159.6820 H   0  0  0  0  0  0  0  0  0  0  0  0
  128.0190  135.1817  157.6377 H   0  0  0  0  0  0  0  0  0  0  0  0
  125.5745  135.3913  157.8445 H   0  0  0  0  0  0  0  0  0  0  0  0
  124.5461  135.6675  160.0654 H   0  0  0  0  0  0  0  0  0  0  0  0
  125.9614  135.7270  162.0785 H   0  0  0  0  0  0  0  0  0  0  0  0
  128.9436  136.5497  162.4295 H   0  0  0  0  0  0  0  0  0  0  0  0
  128.0939  135.1225  163.0694 H   0  0  0  0  0  0  0  0  0  0  0  0
  129.5429  134.9156  162.0569 H   0  0  0  0  0  0  0  0  0  0  0  0
  129.9519  133.3291  153.5986 H   0  0  0  0  0  0  0  0  0  0  0  0
  130.2793  132.1808  151.4478 H   0  0  0  0  0  0  0  0  0  0  0  0
  1  2  1  0
  1 32  1  0
  1 33  1  0
  1 34  1  0
  2  3  1  0
  2 35  1  0
  2 36  1  0
  3 31  2  0
  3  4  1  0
  4  5  2  0
  4 37  1  0
  5  6  1  0
  5 38  1  0
  6  7  1  0
  6 30  2  0
  7 28  1  0
  7  8  2  0
  8  9  1  0
  8 39  1  0
  9 10  1  0
  9 11  1  0
 11 12  1  0
 11 28  2  0
 12 13  1  0
 12 40  1  0
 13 14  1  1
 13 15  1  0
 13 21  1  0
 15 20  1  0
 15 16  2  0
 16 17  1  0
 16 41  1  0
 17 18  2  0
 17 42  1  0
 18 19  1  0
 18 43  1  0
 19 20  2  0
 19 44  1  0
 20 45  1  0
 21 26  1  0
 21 22  2  0
 22 23  1  0
 22 46  1  0
 23 24  2  0
 23 47  1  0
 24 25  1  0
 24 48  1  0
 25 26  2  0
 25 49  1  0
 26 27  1  0
 27 50  1  0
 27 51  1  0
 27 52  1  0
 28 29  1  0
 30 31  1  0
 30 53  1  0
 31 54  1  0
M  CHG  1  28   1
M  END
>  <DOCK_score>  (1) 
-57.655045

>  <SMILES>  (1) 
CCc1ccc(-c2c[nH]c(N[C@@H](c3ccccc3)c3ccccc3C)[nH+]2)cc1

$$$$
