Cc1nn(C2CCC2)cc1[C@H]1[NH2+][C@H](CO)Cc2c1[nH]c1ccc(O)cc21
     RDKit          3D

 51 55  0  0  1  0  0  0  0  0999 V2000
  131.3252  130.3420  158.4156 C   0  0  0  0  0  0  0  0  0  0  0  0
  130.9113  131.2665  157.2999 C   0  0  0  0  0  0  0  0  0  0  0  0
  130.8505  130.9572  156.0300 N   0  0  0  0  0  0  0  0  0  0  0  0
  130.4293  132.0909  155.3231 N   0  0  0  0  0  0  0  0  0  0  0  0
  130.2345  132.1798  153.8738 C   0  0  0  0  0  0  0  0  0  0  0  0
  129.6408  130.9045  153.2527 C   0  0  0  0  0  0  0  0  0  0  0  0
  130.6117  131.1212  152.0779 C   0  0  0  0  0  0  0  0  0  0  0  0
  131.5082  131.8907  153.0622 C   0  0  0  0  0  0  0  0  0  0  0  0
  130.2345  133.0866  156.2129 C   0  0  0  0  0  0  0  0  0  0  0  0
  130.5219  132.6022  157.4433 C   0  0  0  0  0  0  0  0  0  0  0  0
  130.4425  133.3684  158.7386 C   0  0  1  0  0  0  0  0  0  0  0  0
  131.1825  132.9837  159.4404 H   0  0  0  0  0  0  0  0  0  0  0  0
  130.6968  134.7951  158.4851 N   0  0  0  0  0  0  0  0  0  0  0  0
  131.6561  134.9176  158.1973 H   0  0  0  0  0  0  0  0  0  0  0  0
  130.0840  135.1184  157.7515 H   0  0  0  0  0  0  0  0  0  0  0  0
  130.4500  135.5800  159.7019 C   0  0  2  0  0  0  0  0  0  0  0  0
  130.8483  136.5863  159.5720 H   0  0  0  0  0  0  0  0  0  0  0  0
  131.1399  134.9080  160.8908 C   0  0  0  0  0  0  0  0  0  0  0  0
  132.4187  134.4167  160.4839 O   0  0  0  0  0  0  0  0  0  0  0  0
  128.9389  135.6577  159.9641 C   0  0  0  0  0  0  0  0  0  0  0  0
  128.3861  134.2581  159.8758 C   0  0  0  0  0  0  0  0  0  0  0  0
  129.0594  133.2242  159.3296 C   0  0  0  0  0  0  0  0  0  0  0  0
  128.2996  132.0944  159.4052 N   0  0  0  0  0  0  0  0  0  0  0  0
  128.5669  131.2205  159.0800 H   0  0  0  0  0  0  0  0  0  0  0  0
  127.0932  132.3791  160.0138 C   0  0  0  0  0  0  0  0  0  0  0  0
  125.9842  131.6053  160.3374 C   0  0  0  0  0  0  0  0  0  0  0  0
  124.8967  132.1819  160.9540 C   0  0  0  0  0  0  0  0  0  0  0  0
  124.8980  133.5385  161.2690 C   0  0  0  0  0  0  0  0  0  0  0  0
  123.8179  134.0922  161.8822 O   0  0  0  0  0  0  0  0  0  0  0  0
  125.9908  134.3232  160.9620 C   0  0  0  0  0  0  0  0  0  0  0  0
  127.0993  133.7513  160.3320 C   0  0  0  0  0  0  0  0  0  0  0  0
  130.4482  129.8219  158.8007 H   0  0  0  0  0  0  0  0  0  0  0  0
  132.0425  129.6137  158.0369 H   0  0  0  0  0  0  0  0  0  0  0  0
  131.7845  130.9218  159.2163 H   0  0  0  0  0  0  0  0  0  0  0  0
  129.7215  133.0926  153.5709 H   0  0  0  0  0  0  0  0  0  0  0  0
  129.8464  130.0019  153.8283 H   0  0  0  0  0  0  0  0  0  0  0  0
  128.5909  131.0014  152.9762 H   0  0  0  0  0  0  0  0  0  0  0  0
  130.2012  131.7438  151.2829 H   0  0  0  0  0  0  0  0  0  0  0  0
  131.0619  130.2011  151.7049 H   0  0  0  0  0  0  0  0  0  0  0  0
  131.9637  132.7827  152.6321 H   0  0  0  0  0  0  0  0  0  0  0  0
  132.2260  131.2595  153.5861 H   0  0  0  0  0  0  0  0  0  0  0  0
  129.9080  134.0902  155.9841 H   0  0  0  0  0  0  0  0  0  0  0  0
  131.2682  135.6336  161.6940 H   0  0  0  0  0  0  0  0  0  0  0  0
  130.5277  134.0785  161.2446 H   0  0  0  0  0  0  0  0  0  0  0  0
  133.0174  135.1020  160.1566 H   0  0  0  0  0  0  0  0  0  0  0  0
  128.7569  136.0649  160.9587 H   0  0  0  0  0  0  0  0  0  0  0  0
  128.4657  136.2909  159.2134 H   0  0  0  0  0  0  0  0  0  0  0  0
  125.9741  130.5515  160.1011 H   0  0  0  0  0  0  0  0  0  0  0  0
  124.0369  131.5762  161.1997 H   0  0  0  0  0  0  0  0  0  0  0  0
  123.9093  135.0382  162.0613 H   0  0  0  0  0  0  0  0  0  0  0  0
  125.9892  135.3748  161.2073 H   0  0  0  0  0  0  0  0  0  0  0  0
  1  2  1  0
  1 32  1  0
  1 33  1  0
  1 34  1  0
  2 10  1  0
  2  3  2  0
  3  4  1  0
  4  5  1  0
  4  9  1  0
  5  8  1  0
  5  6  1  0
  5 35  1  0
  6  7  1  0
  6 36  1  0
  6 37  1  0
  7  8  1  0
  7 38  1  0
  7 39  1  0
  8 40  1  0
  8 41  1  0
  9 10  2  0
  9 42  1  0
 10 11  1  0
 11 12  1  1
 11 22  1  0
 11 13  1  0
 13 14  1  0
 13 15  1  0
 13 16  1  0
 16 17  1  6
 16 18  1  0
 16 20  1  0
 18 19  1  0
 18 43  1  0
 18 44  1  0
 19 45  1  0
 20 21  1  0
 20 46  1  0
 20 47  1  0
 21 31  1  0
 21 22  2  0
 22 23  1  0
 23 24  1  0
 23 25  1  0
 25 31  2  0
 25 26  1  0
 26 27  2  0
 26 48  1  0
 27 28  1  0
 27 49  1  0
 28 29  1  0
 28 30  2  0
 29 50  1  0
 30 31  1  0
 30 51  1  0
M  CHG  1  13   1
M  END
>  <DOCK_score>  (1) 
-50.383286

>  <SMILES>  (1) 
Cc1nn(C2CCC2)cc1[C@H]1[NH2+][C@H](CO)Cc2c1[nH]c1ccc(O)cc21

$$$$
