Oc1ccc(NC[C@H]2CC[NH+]2C2CCCCCC2)cc1Nc1ccccc1-n1cccn1
     RDKit          3D

 66 70  0  0  1  0  0  0  0  0999 V2000
  124.2365  134.8985  162.6067 O   0  0  0  0  0  0  0  0  0  0  0  0
  125.3055  134.7617  161.7758 C   0  0  0  0  0  0  0  0  0  0  0  0
  125.2986  133.7859  160.7932 C   0  0  0  0  0  0  0  0  0  0  0  0
  126.3840  133.6446  159.9488 C   0  0  0  0  0  0  0  0  0  0  0  0
  127.4844  134.4812  160.0828 C   0  0  0  0  0  0  0  0  0  0  0  0
  128.5817  134.3362  159.2267 N   0  0  0  0  0  0  0  0  0  0  0  0
  129.5275  135.4417  159.0546 C   0  0  0  0  0  0  0  0  0  0  0  0
  130.6460  135.3220  160.0918 C   0  0  1  0  0  0  0  0  0  0  0  0
  130.2759  135.3563  161.1165 H   0  0  0  0  0  0  0  0  0  0  0  0
  131.6051  134.1531  159.8267 C   0  0  0  0  0  0  0  0  0  0  0  0
  132.6757  135.1532  160.2852 C   0  0  0  0  0  0  0  0  0  0  0  0
  131.7766  136.2360  159.8446 N   0  0  2  0  0  0  0  0  0  0  0  0
  131.8898  136.4806  158.8722 H   0  0  0  0  0  0  0  0  0  0  0  0
  131.7890  137.4042  160.7351 C   0  0  0  0  0  0  0  0  0  0  0  0
  130.7349  138.4177  160.2441 C   0  0  0  0  0  0  0  0  0  0  0  0
  130.3832  139.3322  161.3872 C   0  0  0  0  0  0  0  0  0  0  0  0
  131.2145  140.6293  161.3791 C   0  0  0  0  0  0  0  0  0  0  0  0
  132.6975  140.3863  161.0392 C   0  0  0  0  0  0  0  0  0  0  0  0
  133.2516  139.1644  161.7204 C   0  0  0  0  0  0  0  0  0  0  0  0
  133.1307  137.9678  160.7548 C   0  0  0  0  0  0  0  0  0  0  0  0
  127.4984  135.4573  161.0693 C   0  0  0  0  0  0  0  0  0  0  0  0
  126.4075  135.6030  161.9136 C   0  0  0  0  0  0  0  0  0  0  0  0
  126.4162  136.5896  162.9060 N   0  0  0  0  0  0  0  0  0  0  0  0
  127.6253  136.9943  163.4786 C   0  0  0  0  0  0  0  0  0  0  0  0
  128.6797  136.0979  163.5850 C   0  0  0  0  0  0  0  0  0  0  0  0
  129.8754  136.5020  164.1471 C   0  0  0  0  0  0  0  0  0  0  0  0
  130.0226  137.7955  164.6146 C   0  0  0  0  0  0  0  0  0  0  0  0
  128.9763  138.6932  164.5174 C   0  0  0  0  0  0  0  0  0  0  0  0
  127.7741  138.2984  163.9500 C   0  0  0  0  0  0  0  0  0  0  0  0
  126.7111  139.2083  163.8502 N   0  0  0  0  0  0  0  0  0  0  0  0
  126.7211  140.4929  164.2710 C   0  0  0  0  0  0  0  0  0  0  0  0
  125.5096  141.0276  163.9910 C   0  0  0  0  0  0  0  0  0  0  0  0
  124.7301  140.0355  163.3869 C   0  0  0  0  0  0  0  0  0  0  0  0
  125.4490  138.9448  163.3021 N   0  0  0  0  0  0  0  0  0  0  0  0
  124.3335  135.6054  163.2595 H   0  0  0  0  0  0  0  0  0  0  0  0
  124.4441  133.1340  160.6868 H   0  0  0  0  0  0  0  0  0  0  0  0
  126.3763  132.8824  159.1838 H   0  0  0  0  0  0  0  0  0  0  0  0
  128.7161  133.5038  158.7472 H   0  0  0  0  0  0  0  0  0  0  0  0
  129.0068  136.3898  159.1895 H   0  0  0  0  0  0  0  0  0  0  0  0
  129.9552  135.4013  158.0527 H   0  0  0  0  0  0  0  0  0  0  0  0
  131.6814  133.8675  158.7776 H   0  0  0  0  0  0  0  0  0  0  0  0
  131.4706  133.3045  160.4974 H   0  0  0  0  0  0  0  0  0  0  0  0
  133.5995  135.0946  159.7099 H   0  0  0  0  0  0  0  0  0  0  0  0
  132.8473  135.1423  161.3617 H   0  0  0  0  0  0  0  0  0  0  0  0
  131.5265  137.0822  161.7428 H   0  0  0  0  0  0  0  0  0  0  0  0
  131.1441  139.0008  159.4191 H   0  0  0  0  0  0  0  0  0  0  0  0
  129.8423  137.8865  159.9134 H   0  0  0  0  0  0  0  0  0  0  0  0
  130.5579  138.8072  162.3265 H   0  0  0  0  0  0  0  0  0  0  0  0
  129.3264  139.5901  161.3192 H   0  0  0  0  0  0  0  0  0  0  0  0
  131.1510  141.0938  162.3631 H   0  0  0  0  0  0  0  0  0  0  0  0
  130.7919  141.3112  160.6412 H   0  0  0  0  0  0  0  0  0  0  0  0
  133.2773  141.2560  161.3484 H   0  0  0  0  0  0  0  0  0  0  0  0
  132.7966  140.2642  159.9606 H   0  0  0  0  0  0  0  0  0  0  0  0
  132.6830  138.9616  162.6279 H   0  0  0  0  0  0  0  0  0  0  0  0
  134.2998  139.3284  161.9707 H   0  0  0  0  0  0  0  0  0  0  0  0
  133.8341  137.1939  161.0620 H   0  0  0  0  0  0  0  0  0  0  0  0
  133.3889  138.3000  159.7492 H   0  0  0  0  0  0  0  0  0  0  0  0
  128.3558  136.1052  161.1768 H   0  0  0  0  0  0  0  0  0  0  0  0
  125.5830  136.9927  163.1964 H   0  0  0  0  0  0  0  0  0  0  0  0
  128.5668  135.0861  163.2248 H   0  0  0  0  0  0  0  0  0  0  0  0
  130.6963  135.8046  164.2255 H   0  0  0  0  0  0  0  0  0  0  0  0
  130.9580  138.1048  165.0571 H   0  0  0  0  0  0  0  0  0  0  0  0
  129.0949  139.7021  164.8839 H   0  0  0  0  0  0  0  0  0  0  0  0
  127.5481  141.0020  164.7435 H   0  0  0  0  0  0  0  0  0  0  0  0
  125.1984  142.0405  164.2002 H   0  0  0  0  0  0  0  0  0  0  0  0
  123.7108  140.1495  163.0489 H   0  0  0  0  0  0  0  0  0  0  0  0
  1  2  1  0
  1 35  1  0
  2 22  2  0
  2  3  1  0
  3  4  2  0
  3 36  1  0
  4  5  1  0
  4 37  1  0
  5  6  1  0
  5 21  2  0
  6  7  1  0
  6 38  1  0
  7  8  1  0
  7 39  1  0
  7 40  1  0
  8  9  1  1
  8 12  1  0
  8 10  1  0
 10 11  1  0
 10 41  1  0
 10 42  1  0
 11 12  1  0
 11 43  1  0
 11 44  1  0
 12 13  1  6
 12 14  1  0
 14 20  1  0
 14 15  1  0
 14 45  1  0
 15 16  1  0
 15 46  1  0
 15 47  1  0
 16 17  1  0
 16 48  1  0
 16 49  1  0
 17 18  1  0
 17 50  1  0
 17 51  1  0
 18 19  1  0
 18 52  1  0
 18 53  1  0
 19 20  1  0
 19 54  1  0
 19 55  1  0
 20 56  1  0
 20 57  1  0
 21 22  1  0
 21 58  1  0
 22 23  1  0
 23 24  1  0
 23 59  1  0
 24 29  1  0
 24 25  2  0
 25 26  1  0
 25 60  1  0
 26 27  2  0
 26 61  1  0
 27 28  1  0
 27 62  1  0
 28 29  2  0
 28 63  1  0
 29 30  1  0
 30 34  1  0
 30 31  1  0
 31 32  2  0
 31 64  1  0
 32 33  1  0
 32 65  1  0
 33 34  2  0
 33 66  1  0
M  CHG  1  12   1
M  END
>  <DOCK_score>  (1) 
-44.376877

>  <SMILES>  (1) 
Oc1ccc(NC[C@H]2CC[NH+]2C2CCCCCC2)cc1Nc1ccccc1-n1cccn1

$$$$
