Cc1ccc([C@H](Nc2[nH]cc(-c3ccncc3)[nH+]2)c2ccccc2)cc1
     RDKit          3D

 47 50  0  0  1  0  0  0  0  0999 V2000
  130.2495  140.7528  161.9445 C   0  0  0  0  0  0  0  0  0  0  0  0
  129.9038  139.3939  161.3922 C   0  0  0  0  0  0  0  0  0  0  0  0
  129.1362  138.5196  162.1385 C   0  0  0  0  0  0  0  0  0  0  0  0
  128.8190  137.2730  161.6318 C   0  0  0  0  0  0  0  0  0  0  0  0
  129.2694  136.9010  160.3790 C   0  0  0  0  0  0  0  0  0  0  0  0
  128.9241  135.5420  159.8269 C   0  0  2  0  0  0  0  0  0  0  0  0
  128.8146  134.8334  160.6479 H   0  0  0  0  0  0  0  0  0  0  0  0
  129.9936  135.0920  158.9325 N   0  0  0  0  0  0  0  0  0  0  0  0
  129.8980  133.8629  158.3030 C   0  0  0  0  0  0  0  0  0  0  0  0
  129.2511  132.7696  158.7923 N   0  0  0  0  0  0  0  0  0  0  0  0
  128.7784  132.7125  159.6374 H   0  0  0  0  0  0  0  0  0  0  0  0
  129.3956  131.7617  157.8726 C   0  0  0  0  0  0  0  0  0  0  0  0
  130.1218  132.2678  156.8442 C   0  0  0  0  0  0  0  0  0  0  0  0
  130.5257  131.5379  155.6191 C   0  0  0  0  0  0  0  0  0  0  0  0
  130.1186  131.9760  154.3547 C   0  0  0  0  0  0  0  0  0  0  0  0
  130.5214  131.2700  153.2406 C   0  0  0  0  0  0  0  0  0  0  0  0
  131.2711  130.1909  153.3569 N   0  0  0  0  0  0  0  0  0  0  0  0
  131.6719  129.7402  154.5314 C   0  0  0  0  0  0  0  0  0  0  0  0
  131.3195  130.3889  155.6960 C   0  0  0  0  0  0  0  0  0  0  0  0
  130.4123  133.5611  157.1361 N   0  0  0  0  0  0  0  0  0  0  0  0
  130.9225  134.1641  156.5731 H   0  0  0  0  0  0  0  0  0  0  0  0
  127.6297  135.6256  159.0598 C   0  0  0  0  0  0  0  0  0  0  0  0
  126.4276  135.4068  159.7063 C   0  0  0  0  0  0  0  0  0  0  0  0
  125.2401  135.4879  159.0036 C   0  0  0  0  0  0  0  0  0  0  0  0
  125.2550  135.7785  157.6522 C   0  0  0  0  0  0  0  0  0  0  0  0
  126.4575  135.9920  157.0045 C   0  0  0  0  0  0  0  0  0  0  0  0
  127.6448  135.9153  157.7082 C   0  0  0  0  0  0  0  0  0  0  0  0
  130.0415  137.7736  159.6349 C   0  0  0  0  0  0  0  0  0  0  0  0
  130.3539  139.0222  160.1392 C   0  0  0  0  0  0  0  0  0  0  0  0
  131.1856  140.6919  162.4996 H   0  0  0  0  0  0  0  0  0  0  0  0
  130.3594  141.4614  161.1235 H   0  0  0  0  0  0  0  0  0  0  0  0
  129.4539  141.0879  162.6097 H   0  0  0  0  0  0  0  0  0  0  0  0
  128.7846  138.8099  163.1174 H   0  0  0  0  0  0  0  0  0  0  0  0
  128.2195  136.5896  162.2149 H   0  0  0  0  0  0  0  0  0  0  0  0
  130.7687  135.6552  158.7816 H   0  0  0  0  0  0  0  0  0  0  0  0
  129.0057  130.7577  157.9519 H   0  0  0  0  0  0  0  0  0  0  0  0
  129.5013  132.8562  154.2522 H   0  0  0  0  0  0  0  0  0  0  0  0
  130.2154  131.6027  152.2598 H   0  0  0  0  0  0  0  0  0  0  0  0
  132.2846  128.8523  154.5805 H   0  0  0  0  0  0  0  0  0  0  0  0
  131.6519  130.0156  156.6534 H   0  0  0  0  0  0  0  0  0  0  0  0
  126.4161  135.1761  160.7613 H   0  0  0  0  0  0  0  0  0  0  0  0
  124.3006  135.3213  159.5097 H   0  0  0  0  0  0  0  0  0  0  0  0
  124.3274  135.8392  157.1026 H   0  0  0  0  0  0  0  0  0  0  0  0
  126.4691  136.2192  155.9487 H   0  0  0  0  0  0  0  0  0  0  0  0
  128.5841  136.0823  157.2021 H   0  0  0  0  0  0  0  0  0  0  0  0
  130.3972  137.4812  158.6579 H   0  0  0  0  0  0  0  0  0  0  0  0
  130.9534  139.7056  159.5560 H   0  0  0  0  0  0  0  0  0  0  0  0
  1  2  1  0
  1 30  1  0
  1 31  1  0
  1 32  1  0
  2 29  2  0
  2  3  1  0
  3  4  2  0
  3 33  1  0
  4  5  1  0
  4 34  1  0
  5  6  1  0
  5 28  2  0
  6  7  1  1
  6  8  1  0
  6 22  1  0
  8 35  1  0
  9  8  1  0
  9 20  2  0
  9 10  1  0
 10 11  1  0
 10 12  1  0
 12 13  2  0
 12 36  1  0
 13 14  1  0
 13 20  1  0
 14 19  1  0
 14 15  2  0
 15 16  1  0
 15 37  1  0
 16 17  2  0
 16 38  1  0
 17 18  1  0
 18 19  2  0
 18 39  1  0
 19 40  1  0
 20 21  1  0
 22 27  1  0
 22 23  2  0
 23 24  1  0
 23 41  1  0
 24 25  2  0
 24 42  1  0
 25 26  1  0
 25 43  1  0
 26 27  2  0
 26 44  1  0
 27 45  1  0
 28 29  1  0
 28 46  1  0
 29 47  1  0
M  CHG  1  20   1
M  END
>  <DOCK_score>  (1) 
-56.717537

>  <SMILES>  (1) 
Cc1ccc([C@H](Nc2[nH]cc(-c3ccncc3)[nH+]2)c2ccccc2)cc1

$$$$
