Cc1n[nH]cc1C[NH2+]Cc1c[nH]nc1-c1ccc(NCCc2ccc(F)cc2)o1
     RDKit          3D

 53 56  0  0  0  0  0  0  0  0999 V2000
  132.0175  137.4575  163.7605 C   0  0  0  0  0  0  0  0  0  0  0  0
  132.9258  137.1448  162.5995 C   0  0  0  0  0  0  0  0  0  0  0  0
  134.1879  136.8094  162.6814 N   0  0  0  0  0  0  0  0  0  0  0  0
  134.6712  136.6037  161.3827 N   0  0  0  0  0  0  0  0  0  0  0  0
  135.5755  136.3462  161.1445 H   0  0  0  0  0  0  0  0  0  0  0  0
  133.6551  136.8219  160.5219 C   0  0  0  0  0  0  0  0  0  0  0  0
  132.5655  137.1633  161.2481 C   0  0  0  0  0  0  0  0  0  0  0  0
  131.2027  137.4981  160.6983 C   0  0  0  0  0  0  0  0  0  0  0  0
  130.8383  136.5204  159.6643 N   0  0  0  0  0  0  0  0  0  0  0  0
  131.5180  136.5496  158.9192 H   0  0  0  0  0  0  0  0  0  0  0  0
  129.9259  136.7445  159.2962 H   0  0  0  0  0  0  0  0  0  0  0  0
  130.8123  135.1740  160.2510 C   0  0  0  0  0  0  0  0  0  0  0  0
  130.4383  134.1709  159.1902 C   0  0  0  0  0  0  0  0  0  0  0  0
  131.2950  133.5169  158.3769 C   0  0  0  0  0  0  0  0  0  0  0  0
  130.5726  132.7078  157.5720 N   0  0  0  0  0  0  0  0  0  0  0  0
  130.9296  132.1190  156.8889 H   0  0  0  0  0  0  0  0  0  0  0  0
  129.2182  132.8708  157.8900 N   0  0  0  0  0  0  0  0  0  0  0  0
  129.1303  133.7528  158.8662 C   0  0  0  0  0  0  0  0  0  0  0  0
  127.8838  134.2199  159.5072 C   0  0  0  0  0  0  0  0  0  0  0  0
  126.6262  133.8097  159.1954 C   0  0  0  0  0  0  0  0  0  0  0  0
  125.7466  134.5067  160.0472 C   0  0  0  0  0  0  0  0  0  0  0  0
  126.5087  135.3058  160.8348 C   0  0  0  0  0  0  0  0  0  0  0  0
  126.0352  136.1649  161.8197 N   0  0  0  0  0  0  0  0  0  0  0  0
  126.9346  136.6341  162.8766 C   0  0  0  0  0  0  0  0  0  0  0  0
  126.3924  136.1968  164.2390 C   0  0  0  0  0  0  0  0  0  0  0  0
  127.3176  136.6794  165.3262 C   0  0  0  0  0  0  0  0  0  0  0  0
  128.3623  135.8791  165.7498 C   0  0  0  0  0  0  0  0  0  0  0  0
  129.2148  136.3229  166.7428 C   0  0  0  0  0  0  0  0  0  0  0  0
  129.0151  137.5648  167.3219 C   0  0  0  0  0  0  0  0  0  0  0  0
  129.8440  137.9970  168.2971 F   0  0  0  0  0  0  0  0  0  0  0  0
  127.9651  138.3631  166.9008 C   0  0  0  0  0  0  0  0  0  0  0  0
  127.1176  137.9196  165.9033 C   0  0  0  0  0  0  0  0  0  0  0  0
  127.7991  135.1228  160.5068 O   0  0  0  0  0  0  0  0  0  0  0  0
  131.5312  136.5423  164.0981 H   0  0  0  0  0  0  0  0  0  0  0  0
  132.6035  137.8799  164.5768 H   0  0  0  0  0  0  0  0  0  0  0  0
  131.2607  138.1763  163.4465 H   0  0  0  0  0  0  0  0  0  0  0  0
  133.7034  136.7410  159.4462 H   0  0  0  0  0  0  0  0  0  0  0  0
  131.2220  138.4972  160.2631 H   0  0  0  0  0  0  0  0  0  0  0  0
  130.4685  137.4665  161.5033 H   0  0  0  0  0  0  0  0  0  0  0  0
  130.0779  135.1423  161.0559 H   0  0  0  0  0  0  0  0  0  0  0  0
  131.7978  134.9318  160.6488 H   0  0  0  0  0  0  0  0  0  0  0  0
  132.3700  133.6209  158.3722 H   0  0  0  0  0  0  0  0  0  0  0  0
  126.3534  133.0877  158.4400 H   0  0  0  0  0  0  0  0  0  0  0  0
  124.6702  134.4212  160.0686 H   0  0  0  0  0  0  0  0  0  0  0  0
  125.1094  136.4538  161.8071 H   0  0  0  0  0  0  0  0  0  0  0  0
  127.9261  136.2071  162.7260 H   0  0  0  0  0  0  0  0  0  0  0  0
  126.9985  137.7218  162.8432 H   0  0  0  0  0  0  0  0  0  0  0  0
  125.4010  136.6238  164.3895 H   0  0  0  0  0  0  0  0  0  0  0  0
  126.3286  135.1091  164.2725 H   0  0  0  0  0  0  0  0  0  0  0  0
  128.5148  134.9083  165.3017 H   0  0  0  0  0  0  0  0  0  0  0  0
  130.0333  135.6994  167.0707 H   0  0  0  0  0  0  0  0  0  0  0  0
  127.8082  139.3317  167.3519 H   0  0  0  0  0  0  0  0  0  0  0  0
  126.2985  138.5421  165.5746 H   0  0  0  0  0  0  0  0  0  0  0  0
  1  2  1  0
  1 34  1  0
  1 35  1  0
  1 36  1  0
  2  7  1  0
  2  3  2  0
  3  4  1  0
  4  5  1  0
  4  6  1  0
  6  7  2  0
  6 37  1  0
  7  8  1  0
  8  9  1  0
  8 38  1  0
  8 39  1  0
  9 10  1  0
  9 11  1  0
  9 12  1  0
 12 13  1  0
 12 40  1  0
 12 41  1  0
 13 18  1  0
 13 14  2  0
 14 15  1  0
 14 42  1  0
 15 16  1  0
 15 17  1  0
 17 18  2  0
 18 19  1  0
 19 33  1  0
 19 20  2  0
 20 21  1  0
 20 43  1  0
 21 22  2  0
 21 44  1  0
 22 23  1  0
 22 33  1  0
 23 24  1  0
 23 45  1  0
 24 25  1  0
 24 46  1  0
 24 47  1  0
 25 26  1  0
 25 48  1  0
 25 49  1  0
 26 32  1  0
 26 27  2  0
 27 28  1  0
 27 50  1  0
 28 29  2  0
 28 51  1  0
 29 30  1  0
 29 31  1  0
 31 32  2  0
 31 52  1  0
 32 53  1  0
M  CHG  1   9   1
M  END
>  <DOCK_score>  (1) 
-45.571251

>  <SMILES>  (1) 
Cc1n[nH]cc1C[NH2+]Cc1c[nH]nc1-c1ccc(NCCc2ccc(F)cc2)o1

$$$$
