O=C1CC[C@H](Nc2ccc(-c3n[nH]cc3C[NH2+][C@@H]3C=CCCC3)o2)CN1
     RDKit          3D

 52 55  0  0  1  0  0  0  0  0999 V2000
  128.1168  138.6177  165.7641 O   0  0  0  0  0  0  0  0  0  0  0  0
  127.6033  137.9739  164.8737 C   0  0  0  0  0  0  0  0  0  0  0  0
  128.2145  138.0426  163.5036 C   0  0  0  0  0  0  0  0  0  0  0  0
  127.2114  137.5448  162.4602 C   0  0  0  0  0  0  0  0  0  0  0  0
  126.6347  136.2078  162.9411 C   0  0  2  0  0  0  0  0  0  0  0  0
  127.4469  135.5242  163.1883 H   0  0  0  0  0  0  0  0  0  0  0  0
  125.8040  135.6228  161.8857 N   0  0  0  0  0  0  0  0  0  0  0  0
  126.3726  134.7718  160.9450 C   0  0  0  0  0  0  0  0  0  0  0  0
  125.7387  133.7530  160.3127 C   0  0  0  0  0  0  0  0  0  0  0  0
  126.6790  133.1563  159.4497 C   0  0  0  0  0  0  0  0  0  0  0  0
  127.8422  133.8431  159.5996 C   0  0  0  0  0  0  0  0  0  0  0  0
  129.1080  133.5672  158.8890 C   0  0  0  0  0  0  0  0  0  0  0  0
  129.3065  132.6163  157.9975 N   0  0  0  0  0  0  0  0  0  0  0  0
  130.6386  132.6913  157.5713 N   0  0  0  0  0  0  0  0  0  0  0  0
  131.0612  132.1098  156.9201 H   0  0  0  0  0  0  0  0  0  0  0  0
  131.2332  133.7136  158.2240 C   0  0  0  0  0  0  0  0  0  0  0  0
  130.3177  134.2771  159.0410 C   0  0  0  0  0  0  0  0  0  0  0  0
  130.5490  135.4509  159.9573 C   0  0  0  0  0  0  0  0  0  0  0  0
  131.9388  135.9083  159.8259 N   0  0  0  0  0  0  0  0  0  0  0  0
  132.1124  136.1869  158.8719 H   0  0  0  0  0  0  0  0  0  0  0  0
  132.5650  135.1578  160.0762 H   0  0  0  0  0  0  0  0  0  0  0  0
  132.1641  137.0527  160.7191 C   0  0  2  0  0  0  0  0  0  0  0  0
  131.6526  136.8760  161.6652 H   0  0  0  0  0  0  0  0  0  0  0  0
  131.6167  138.2963  160.0822 C   0  0  0  0  0  0  0  0  0  0  0  0
  132.2231  139.4377  160.0860 C   0  0  0  0  0  0  0  0  0  0  0  0
  133.5651  139.6783  160.7129 C   0  0  0  0  0  0  0  0  0  0  0  0
  133.8991  138.5465  161.6872 C   0  0  0  0  0  0  0  0  0  0  0  0
  133.6648  137.2083  160.9752 C   0  0  0  0  0  0  0  0  0  0  0  0
  127.6444  134.8167  160.5131 O   0  0  0  0  0  0  0  0  0  0  0  0
  125.7813  136.4614  164.1843 C   0  0  0  0  0  0  0  0  0  0  0  0
  126.5258  137.2436  165.1634 N   0  0  0  0  0  0  0  0  0  0  0  0
  128.4876  139.0739  163.2802 H   0  0  0  0  0  0  0  0  0  0  0  0
  129.1068  137.4172  163.4735 H   0  0  0  0  0  0  0  0  0  0  0  0
  127.7155  137.4044  161.5041 H   0  0  0  0  0  0  0  0  0  0  0  0
  126.4074  138.2722  162.3484 H   0  0  0  0  0  0  0  0  0  0  0  0
  124.8572  135.8293  161.8432 H   0  0  0  0  0  0  0  0  0  0  0  0
  124.7090  133.4557  160.4455 H   0  0  0  0  0  0  0  0  0  0  0  0
  126.5082  132.3150  158.7944 H   0  0  0  0  0  0  0  0  0  0  0  0
  132.2610  134.0258  158.1117 H   0  0  0  0  0  0  0  0  0  0  0  0
  130.3614  135.1499  160.9879 H   0  0  0  0  0  0  0  0  0  0  0  0
  129.8726  136.2617  159.6867 H   0  0  0  0  0  0  0  0  0  0  0  0
  130.6561  138.2337  159.5926 H   0  0  0  0  0  0  0  0  0  0  0  0
  131.7322  140.2708  159.6050 H   0  0  0  0  0  0  0  0  0  0  0  0
  133.5477  140.6256  161.2517 H   0  0  0  0  0  0  0  0  0  0  0  0
  134.3258  139.7200  159.9332 H   0  0  0  0  0  0  0  0  0  0  0  0
  134.9430  138.6216  161.9921 H   0  0  0  0  0  0  0  0  0  0  0  0
  133.2529  138.6140  162.5625 H   0  0  0  0  0  0  0  0  0  0  0  0
  134.2013  137.1992  160.0264 H   0  0  0  0  0  0  0  0  0  0  0  0
  134.0156  136.3914  161.6058 H   0  0  0  0  0  0  0  0  0  0  0  0
  124.8808  137.0051  163.8986 H   0  0  0  0  0  0  0  0  0  0  0  0
  125.4968  135.5069  164.6272 H   0  0  0  0  0  0  0  0  0  0  0  0
  126.2182  137.2324  166.0833 H   0  0  0  0  0  0  0  0  0  0  0  0
  1  2  2  0
  2 31  1  0
  2  3  1  0
  3  4  1  0
  3 32  1  0
  3 33  1  0
  4  5  1  0
  4 34  1  0
  4 35  1  0
  5  6  1  1
  5  7  1  0
  5 30  1  0
  7  8  1  0
  7 36  1  0
  8 29  1  0
  8  9  2  0
  9 10  1  0
  9 37  1  0
 10 11  2  0
 10 38  1  0
 11 12  1  0
 11 29  1  0
 12 17  1  0
 12 13  2  0
 13 14  1  0
 14 15  1  0
 14 16  1  0
 16 17  2  0
 16 39  1  0
 17 18  1  0
 18 19  1  0
 18 40  1  0
 18 41  1  0
 19 20  1  0
 19 21  1  0
 19 22  1  0
 22 23  1  1
 22 28  1  0
 22 24  1  0
 24 25  2  0
 24 42  1  0
 25 26  1  0
 25 43  1  0
 26 27  1  0
 26 44  1  0
 26 45  1  0
 27 28  1  0
 27 46  1  0
 27 47  1  0
 28 48  1  0
 28 49  1  0
 30 31  1  0
 30 50  1  0
 30 51  1  0
 31 52  1  0
M  CHG  1  19   1
M  END
>  <DOCK_score>  (1) 
-43.936913

>  <SMILES>  (1) 
O=C1CC[C@H](Nc2ccc(-c3n[nH]cc3C[NH2+][C@@H]3C=CCCC3)o2)CN1

$$$$
