CCc1ccc(-c2c[nH]c(N[C@H](C)Cc3ccc(C4=CCC=CC4)cc3)[nH+]2)cc1
     RDKit          3D

 59 62  0  0  1  0  0  0  0  0999 V2000
  130.3939  128.4129  152.1265 C   0  0  0  0  0  0  0  0  0  0  0  0
  131.4401  129.4997  152.3816 C   0  0  0  0  0  0  0  0  0  0  0  0
  131.0666  130.2764  153.6179 C   0  0  0  0  0  0  0  0  0  0  0  0
  131.5283  129.8657  154.8549 C   0  0  0  0  0  0  0  0  0  0  0  0
  131.1942  130.5763  155.9900 C   0  0  0  0  0  0  0  0  0  0  0  0
  130.3804  131.7032  155.8890 C   0  0  0  0  0  0  0  0  0  0  0  0
  130.0133  132.4678  157.1059 C   0  0  0  0  0  0  0  0  0  0  0  0
  129.3431  131.9835  158.1808 C   0  0  0  0  0  0  0  0  0  0  0  0
  129.2167  133.0210  159.0723 N   0  0  0  0  0  0  0  0  0  0  0  0
  128.7818  132.9843  159.9385 H   0  0  0  0  0  0  0  0  0  0  0  0
  129.8138  134.1099  158.5156 C   0  0  0  0  0  0  0  0  0  0  0  0
  129.9046  135.3640  159.0947 N   0  0  0  0  0  0  0  0  0  0  0  0
  129.3274  135.6024  160.4200 C   0  0  2  0  0  0  0  0  0  0  0  0
  129.5187  134.7411  161.0598 H   0  0  0  0  0  0  0  0  0  0  0  0
  127.8178  135.8145  160.2880 C   0  0  0  0  0  0  0  0  0  0  0  0
  129.9654  136.8484  161.0374 C   0  0  0  0  0  0  0  0  0  0  0  0
  131.3102  136.4901  161.6156 C   0  0  0  0  0  0  0  0  0  0  0  0
  132.4446  136.5810  160.8290 C   0  0  0  0  0  0  0  0  0  0  0  0
  133.6792  136.2590  161.3538 C   0  0  0  0  0  0  0  0  0  0  0  0
  133.7809  135.8308  162.6778 C   0  0  0  0  0  0  0  0  0  0  0  0
  135.0998  135.4784  163.2446 C   0  0  0  0  0  0  0  0  0  0  0  0
  135.7852  134.5034  162.6895 C   0  0  0  0  0  0  0  0  0  0  0  0
  137.1334  134.0768  163.1882 C   0  0  0  0  0  0  0  0  0  0  0  0
  137.3544  134.5271  164.6007 C   0  0  0  0  0  0  0  0  0  0  0  0
  136.6756  135.4858  165.1518 C   0  0  0  0  0  0  0  0  0  0  0  0
  135.5997  136.2429  164.4336 C   0  0  0  0  0  0  0  0  0  0  0  0
  132.6323  135.7361  163.4644 C   0  0  0  0  0  0  0  0  0  0  0  0
  131.4042  136.0662  162.9291 C   0  0  0  0  0  0  0  0  0  0  0  0
  130.2937  133.7738  157.3431 N   0  0  0  0  0  0  0  0  0  0  0  0
  130.7710  134.3651  156.7402 H   0  0  0  0  0  0  0  0  0  0  0  0
  129.9131  132.1094  154.6403 C   0  0  0  0  0  0  0  0  0  0  0  0
  130.2583  131.3945  153.5113 C   0  0  0  0  0  0  0  0  0  0  0  0
  130.6640  127.8513  151.2322 H   0  0  0  0  0  0  0  0  0  0  0  0
  130.3558  127.7381  152.9816 H   0  0  0  0  0  0  0  0  0  0  0  0
  129.4169  128.8748  151.9843 H   0  0  0  0  0  0  0  0  0  0  0  0
  132.4168  129.0384  152.5233 H   0  0  0  0  0  0  0  0  0  0  0  0
  131.4779  130.1751  151.5260 H   0  0  0  0  0  0  0  0  0  0  0  0
  132.1550  128.9896  154.9325 H   0  0  0  0  0  0  0  0  0  0  0  0
  131.5592  130.2573  156.9550 H   0  0  0  0  0  0  0  0  0  0  0  0
  128.9784  130.9754  158.3109 H   0  0  0  0  0  0  0  0  0  0  0  0
  130.3506  136.0849  158.6231 H   0  0  0  0  0  0  0  0  0  0  0  0
  127.6266  136.6760  159.6480 H   0  0  0  0  0  0  0  0  0  0  0  0
  127.3633  134.9269  159.8481 H   0  0  0  0  0  0  0  0  0  0  0  0
  127.3884  135.9919  161.2739 H   0  0  0  0  0  0  0  0  0  0  0  0
  130.0918  137.6108  160.2689 H   0  0  0  0  0  0  0  0  0  0  0  0
  129.3208  137.2328  161.8280 H   0  0  0  0  0  0  0  0  0  0  0  0
  132.3640  136.9087  159.8030 H   0  0  0  0  0  0  0  0  0  0  0  0
  134.5646  136.3344  160.7398 H   0  0  0  0  0  0  0  0  0  0  0  0
  135.3620  133.9920  161.8377 H   0  0  0  0  0  0  0  0  0  0  0  0
  137.9063  134.5066  162.5512 H   0  0  0  0  0  0  0  0  0  0  0  0
  137.1988  132.9897  163.1454 H   0  0  0  0  0  0  0  0  0  0  0  0
  138.1133  134.0305  165.1867 H   0  0  0  0  0  0  0  0  0  0  0  0
  136.8962  135.7507  166.1754 H   0  0  0  0  0  0  0  0  0  0  0  0
  135.9987  137.2009  164.1003 H   0  0  0  0  0  0  0  0  0  0  0  0
  134.7703  136.4211  165.1182 H   0  0  0  0  0  0  0  0  0  0  0  0
  132.7045  135.4049  164.4898 H   0  0  0  0  0  0  0  0  0  0  0  0
  130.5144  135.9930  163.5367 H   0  0  0  0  0  0  0  0  0  0  0  0
  129.2820  132.9818  154.5562 H   0  0  0  0  0  0  0  0  0  0  0  0
  129.8966  131.7081  152.5432 H   0  0  0  0  0  0  0  0  0  0  0  0
  1  2  1  0
  1 33  1  0
  1 34  1  0
  1 35  1  0
  2  3  1  0
  2 36  1  0
  2 37  1  0
  3 32  2  0
  3  4  1  0
  4  5  2  0
  4 38  1  0
  5  6  1  0
  5 39  1  0
  6  7  1  0
  6 31  2  0
  7 29  1  0
  7  8  2  0
  8  9  1  0
  8 40  1  0
  9 10  1  0
  9 11  1  0
 11 12  1  0
 11 29  2  0
 12 13  1  0
 12 41  1  0
 13 14  1  1
 13 15  1  0
 13 16  1  0
 15 42  1  0
 15 43  1  0
 15 44  1  0
 16 17  1  0
 16 45  1  0
 16 46  1  0
 17 28  1  0
 17 18  2  0
 18 19  1  0
 18 47  1  0
 19 20  2  0
 19 48  1  0
 20 21  1  0
 20 27  1  0
 21 26  1  0
 21 22  2  0
 22 23  1  0
 22 49  1  0
 23 24  1  0
 23 50  1  0
 23 51  1  0
 24 25  2  0
 24 52  1  0
 25 26  1  0
 25 53  1  0
 26 54  1  0
 26 55  1  0
 27 28  2  0
 27 56  1  0
 28 57  1  0
 29 30  1  0
 31 32  1  0
 31 58  1  0
 32 59  1  0
M  CHG  1  29   1
M  END
>  <DOCK_score>  (1) 
-57.591553

>  <SMILES>  (1) 
CCc1ccc(-c2c[nH]c(N[C@H](C)Cc3ccc(C4=CCC=CC4)cc3)[nH+]2)cc1

$$$$
