C[C@](CNc1ccc(Oc2cccnc2)cc1)([NH2+]Cc1cccc2c1NC(=O)CO2)c1ccccc1
     RDKit          3D

 65 69  0  0  1  0  0  0  0  0999 V2000
  129.1801  137.0245  159.2259 C   0  0  0  0  0  0  0  0  0  0  0  0
  129.6848  135.7796  159.9584 C   0  0  2  0  0  0  0  0  0  0  0  0
  130.7479  136.1857  160.9812 C   0  0  0  0  0  0  0  0  0  0  0  0
  131.8663  136.8339  160.2918 N   0  0  0  0  0  0  0  0  0  0  0  0
  132.9663  137.2949  161.0233 C   0  0  0  0  0  0  0  0  0  0  0  0
  133.8155  138.2473  160.4750 C   0  0  0  0  0  0  0  0  0  0  0  0
  134.8974  138.7063  161.2002 C   0  0  0  0  0  0  0  0  0  0  0  0
  135.1431  138.2078  162.4709 C   0  0  0  0  0  0  0  0  0  0  0  0
  136.2113  138.6565  163.1826 O   0  0  0  0  0  0  0  0  0  0  0  0
  136.9819  137.7390  163.8238 C   0  0  0  0  0  0  0  0  0  0  0  0
  137.3875  137.9525  165.1379 C   0  0  0  0  0  0  0  0  0  0  0  0
  138.1718  136.9883  165.7496 C   0  0  0  0  0  0  0  0  0  0  0  0
  138.5231  135.8543  165.0406 C   0  0  0  0  0  0  0  0  0  0  0  0
  138.1221  135.6826  163.7964 N   0  0  0  0  0  0  0  0  0  0  0  0
  137.3705  136.5733  163.1797 C   0  0  0  0  0  0  0  0  0  0  0  0
  134.2987  137.2520  163.0172 C   0  0  0  0  0  0  0  0  0  0  0  0
  133.2128  136.7964  162.2958 C   0  0  0  0  0  0  0  0  0  0  0  0
  130.2704  134.8446  158.9884 N   0  0  0  0  0  0  0  0  0  0  0  0
  130.7982  135.3604  158.3004 H   0  0  0  0  0  0  0  0  0  0  0  0
  130.8817  134.2013  159.4684 H   0  0  0  0  0  0  0  0  0  0  0  0
  129.1973  134.0952  158.3214 C   0  0  0  0  0  0  0  0  0  0  0  0
  129.7979  133.1360  157.3264 C   0  0  0  0  0  0  0  0  0  0  0  0
  130.0086  133.5347  156.0186 C   0  0  0  0  0  0  0  0  0  0  0  0
  130.5632  132.6579  155.1051 C   0  0  0  0  0  0  0  0  0  0  0  0
  130.9027  131.3730  155.4895 C   0  0  0  0  0  0  0  0  0  0  0  0
  130.6905  130.9653  156.7945 C   0  0  0  0  0  0  0  0  0  0  0  0
  130.1353  131.8513  157.7172 C   0  0  0  0  0  0  0  0  0  0  0  0
  129.9251  131.4247  159.0361 N   0  0  0  0  0  0  0  0  0  0  0  0
  130.5388  130.3008  159.4664 C   0  0  0  0  0  0  0  0  0  0  0  0
  130.3469  129.8958  160.5936 O   0  0  0  0  0  0  0  0  0  0  0  0
  131.4628  129.5519  158.5403 C   0  0  0  0  0  0  0  0  0  0  0  0
  131.0187  129.7063  157.1899 O   0  0  0  0  0  0  0  0  0  0  0  0
  128.5342  135.1129  160.6674 C   0  0  0  0  0  0  0  0  0  0  0  0
  127.2646  135.6531  160.5839 C   0  0  0  0  0  0  0  0  0  0  0  0
  126.2104  135.0452  161.2399 C   0  0  0  0  0  0  0  0  0  0  0  0
  126.4258  133.8967  161.9784 C   0  0  0  0  0  0  0  0  0  0  0  0
  127.6954  133.3563  162.0614 C   0  0  0  0  0  0  0  0  0  0  0  0
  128.7496  133.9643  161.4059 C   0  0  0  0  0  0  0  0  0  0  0  0
  128.7456  137.7184  159.9456 H   0  0  0  0  0  0  0  0  0  0  0  0
  130.0123  137.5068  158.7130 H   0  0  0  0  0  0  0  0  0  0  0  0
  128.4228  136.7353  158.4973 H   0  0  0  0  0  0  0  0  0  0  0  0
  130.3134  136.8795  161.7008 H   0  0  0  0  0  0  0  0  0  0  0  0
  131.1076  135.2989  161.5029 H   0  0  0  0  0  0  0  0  0  0  0  0
  131.8443  136.9433  159.3283 H   0  0  0  0  0  0  0  0  0  0  0  0
  133.6271  138.6322  159.4837 H   0  0  0  0  0  0  0  0  0  0  0  0
  135.5553  139.4503  160.7756 H   0  0  0  0  0  0  0  0  0  0  0  0
  137.0977  138.8477  165.6677 H   0  0  0  0  0  0  0  0  0  0  0  0
  138.5045  137.1204  166.7685 H   0  0  0  0  0  0  0  0  0  0  0  0
  139.1346  135.0994  165.5123 H   0  0  0  0  0  0  0  0  0  0  0  0
  137.0576  136.3954  162.1615 H   0  0  0  0  0  0  0  0  0  0  0  0
  134.4904  136.8642  164.0068 H   0  0  0  0  0  0  0  0  0  0  0  0
  132.5556  136.0522  162.7210 H   0  0  0  0  0  0  0  0  0  0  0  0
  128.6271  133.5380  159.0646 H   0  0  0  0  0  0  0  0  0  0  0  0
  128.5368  134.7903  157.8029 H   0  0  0  0  0  0  0  0  0  0  0  0
  129.7422  134.5352  155.7113 H   0  0  0  0  0  0  0  0  0  0  0  0
  130.7286  132.9760  154.0863 H   0  0  0  0  0  0  0  0  0  0  0  0
  131.3327  130.6894  154.7724 H   0  0  0  0  0  0  0  0  0  0  0  0
  129.3480  131.9290  159.6307 H   0  0  0  0  0  0  0  0  0  0  0  0
  132.4736  129.9482  158.6374 H   0  0  0  0  0  0  0  0  0  0  0  0
  131.4615  128.4942  158.8038 H   0  0  0  0  0  0  0  0  0  0  0  0
  127.0962  136.5503  160.0069 H   0  0  0  0  0  0  0  0  0  0  0  0
  125.2185  135.4674  161.1750 H   0  0  0  0  0  0  0  0  0  0  0  0
  125.6021  133.4218  162.4908 H   0  0  0  0  0  0  0  0  0  0  0  0
  127.8638  132.4592  162.6387 H   0  0  0  0  0  0  0  0  0  0  0  0
  129.7417  133.5423  161.4711 H   0  0  0  0  0  0  0  0  0  0  0  0
  1 39  1  0
  1 40  1  0
  1 41  1  0
  2  1  1  6
  2  3  1  0
  2 18  1  0
  2 33  1  0
  3  4  1  0
  3 42  1  0
  3 43  1  0
  4  5  1  0
  4 44  1  0
  5 17  1  0
  5  6  2  0
  6  7  1  0
  6 45  1  0
  7  8  2  0
  7 46  1  0
  8  9  1  0
  8 16  1  0
  9 10  1  0
 10 15  1  0
 10 11  2  0
 11 12  1  0
 11 47  1  0
 12 13  2  0
 12 48  1  0
 13 14  1  0
 13 49  1  0
 14 15  2  0
 15 50  1  0
 16 17  2  0
 16 51  1  0
 17 52  1  0
 18 19  1  0
 18 20  1  0
 18 21  1  0
 21 22  1  0
 21 53  1  0
 21 54  1  0
 22 27  1  0
 22 23  2  0
 23 24  1  0
 23 55  1  0
 24 25  2  0
 24 56  1  0
 25 26  1  0
 25 57  1  0
 26 32  1  0
 26 27  2  0
 27 28  1  0
 28 29  1  0
 28 58  1  0
 29 30  2  0
 29 31  1  0
 31 32  1  0
 31 59  1  0
 31 60  1  0
 33 38  1  0
 33 34  2  0
 34 35  1  0
 34 61  1  0
 35 36  2  0
 35 62  1  0
 36 37  1  0
 36 63  1  0
 37 38  2  0
 37 64  1  0
 38 65  1  0
M  CHG  1  18   1
M  END
>  <DOCK_score>  (1) 
-60.920547

>  <SMILES>  (1) 
C[C@](CNc1ccc(Oc2cccnc2)cc1)([NH2+]Cc1cccc2c1NC(=O)CO2)c1ccccc1

$$$$
