[NH3+]C(C[C@@H]1CC=CCC1)C(=O)Nc1cc(Sc2c[nH]nn2)ccc1O
     RDKit          3D

 47 49  0  0  1  0  0  0  0  0999 V2000
  128.3831  136.9153  164.6050 N   0  0  0  0  0  0  0  0  0  0  0  0
  128.5123  137.7908  165.0897 H   0  0  0  0  0  0  0  0  0  0  0  0
  127.9194  136.2586  165.2149 H   0  0  0  0  0  0  0  0  0  0  0  0
  129.2817  136.5453  164.3335 H   0  0  0  0  0  0  0  0  0  0  0  0
  127.5619  137.1351  163.4071 C   0  0  1  0  0  0  0  0  0  0  0  0
  128.2650  138.1308  162.4824 C   0  0  0  0  0  0  0  0  0  0  0  0
  128.4609  139.4585  163.2171 C   0  0  2  0  0  0  0  0  0  0  0  0
  129.0701  139.2986  164.1068 H   0  0  0  0  0  0  0  0  0  0  0  0
  127.0992  140.0309  163.6170 C   0  0  0  0  0  0  0  0  0  0  0  0
  127.2535  141.4444  164.0970 C   0  0  0  0  0  0  0  0  0  0  0  0
  128.2953  142.1781  163.8691 C   0  0  0  0  0  0  0  0  0  0  0  0
  129.4987  141.7144  163.1018 C   0  0  0  0  0  0  0  0  0  0  0  0
  129.1563  140.4633  162.2899 C   0  0  0  0  0  0  0  0  0  0  0  0
  127.3689  135.8275  162.6834 C   0  0  0  0  0  0  0  0  0  0  0  0
  128.2238  134.9691  162.7436 O   0  0  0  0  0  0  0  0  0  0  0  0
  126.2489  135.6138  161.9647 N   0  0  0  0  0  0  0  0  0  0  0  0
  126.0722  134.4003  161.2869 C   0  0  0  0  0  0  0  0  0  0  0  0
  127.1728  133.7041  160.8112 C   0  0  0  0  0  0  0  0  0  0  0  0
  126.9947  132.4989  160.1450 C   0  0  0  0  0  0  0  0  0  0  0  0
  128.3920  131.6086  159.5456 S   0  0  0  0  0  0  0  0  0  0  0  0
  129.5551  132.8851  159.1958 C   0  0  0  0  0  0  0  0  0  0  0  0
  130.1172  133.1667  157.9905 C   0  0  0  0  0  0  0  0  0  0  0  0
  130.9466  134.2263  158.2025 N   0  0  0  0  0  0  0  0  0  0  0  0
  131.4945  134.6630  157.5316 H   0  0  0  0  0  0  0  0  0  0  0  0
  130.8783  134.5473  159.4469 N   0  0  0  0  0  0  0  0  0  0  0  0
  130.0566  133.7747  160.0644 N   0  0  0  0  0  0  0  0  0  0  0  0
  125.7140  131.9980  159.9456 C   0  0  0  0  0  0  0  0  0  0  0  0
  124.6166  132.6942  160.4150 C   0  0  0  0  0  0  0  0  0  0  0  0
  124.7902  133.8943  161.0853 C   0  0  0  0  0  0  0  0  0  0  0  0
  123.7083  134.5783  161.5468 O   0  0  0  0  0  0  0  0  0  0  0  0
  126.5910  137.5347  163.7005 H   0  0  0  0  0  0  0  0  0  0  0  0
  129.2357  137.7312  162.1891 H   0  0  0  0  0  0  0  0  0  0  0  0
  127.6556  138.2941  161.5936 H   0  0  0  0  0  0  0  0  0  0  0  0
  126.4324  140.0129  162.7549 H   0  0  0  0  0  0  0  0  0  0  0  0
  126.6718  139.4232  164.4145 H   0  0  0  0  0  0  0  0  0  0  0  0
  126.4451  141.8762  164.6684 H   0  0  0  0  0  0  0  0  0  0  0  0
  128.2984  143.1867  164.2550 H   0  0  0  0  0  0  0  0  0  0  0  0
  130.3045  141.4836  163.7986 H   0  0  0  0  0  0  0  0  0  0  0  0
  129.8235  142.5058  162.4262 H   0  0  0  0  0  0  0  0  0  0  0  0
  130.0706  140.0229  161.8923 H   0  0  0  0  0  0  0  0  0  0  0  0
  128.4893  140.7266  161.4689 H   0  0  0  0  0  0  0  0  0  0  0  0
  125.5653  136.3002  161.9166 H   0  0  0  0  0  0  0  0  0  0  0  0
  128.1677  134.0966  160.9623 H   0  0  0  0  0  0  0  0  0  0  0  0
  129.9422  132.6546  157.0558 H   0  0  0  0  0  0  0  0  0  0  0  0
  125.5761  131.0629  159.4231 H   0  0  0  0  0  0  0  0  0  0  0  0
  123.6224  132.3026  160.2590 H   0  0  0  0  0  0  0  0  0  0  0  0
  123.9287  135.4031  162.0009 H   0  0  0  0  0  0  0  0  0  0  0  0
  1  2  1  0
  1  3  1  0
  1  4  1  0
  1  5  1  0
  5  6  1  0
  5 14  1  0
  5 31  1  1
  6  7  1  0
  6 32  1  0
  6 33  1  0
  7  8  1  1
  7 13  1  0
  7  9  1  0
  9 10  1  0
  9 34  1  0
  9 35  1  0
 10 11  2  0
 10 36  1  0
 11 12  1  0
 11 37  1  0
 12 13  1  0
 12 38  1  0
 12 39  1  0
 13 40  1  0
 13 41  1  0
 14 15  2  0
 14 16  1  0
 16 17  1  0
 16 42  1  0
 17 29  1  0
 17 18  2  0
 18 19  1  0
 18 43  1  0
 19 20  1  0
 19 27  2  0
 20 21  1  0
 21 26  1  0
 21 22  2  0
 22 23  1  0
 22 44  1  0
 23 24  1  0
 23 25  1  0
 25 26  2  0
 27 28  1  0
 27 45  1  0
 28 29  2  0
 28 46  1  0
 29 30  1  0
 30 47  1  0
M  CHG  1   1   1
M  END
>  <DOCK_score>  (1) 
-41.649448

>  <SMILES>  (1) 
[NH3+]C(C[C@@H]1CC=CCC1)C(=O)Nc1cc(Sc2c[nH]nn2)ccc1O

$$$$
