FC1(F)C[C@H]1CNc1cc(Nc2[nH]c3ccccc3[nH+]2)c2ccccc2c1
     RDKit          3D

 46 50  0  0  1  0  0  0  0  0999 V2000
  123.2139  131.6183  160.6593 F   0  0  0  0  0  0  0  0  0  0  0  0
  124.5072  132.0480  160.9753 C   0  0  0  0  0  0  0  0  0  0  0  0
  125.5461  131.3249  160.3794 F   0  0  0  0  0  0  0  0  0  0  0  0
  124.7451  132.5967  162.3844 C   0  0  0  0  0  0  0  0  0  0  0  0
  124.7213  133.5482  161.1866 C   0  0  1  0  0  0  0  0  0  0  0  0
  123.8546  134.2004  161.0789 H   0  0  0  0  0  0  0  0  0  0  0  0
  126.0551  134.1427  160.7299 C   0  0  0  0  0  0  0  0  0  0  0  0
  126.2811  135.4181  161.4142 N   0  0  0  0  0  0  0  0  0  0  0  0
  127.4408  136.1520  161.1579 C   0  0  0  0  0  0  0  0  0  0  0  0
  128.3792  135.6645  160.2430 C   0  0  0  0  0  0  0  0  0  0  0  0
  129.5250  136.3593  159.9777 C   0  0  0  0  0  0  0  0  0  0  0  0
  130.4533  135.8564  159.0658 N   0  0  0  0  0  0  0  0  0  0  0  0
  130.5859  134.4967  158.8978 C   0  0  0  0  0  0  0  0  0  0  0  0
  130.9538  133.9007  157.7657 N   0  0  0  0  0  0  0  0  0  0  0  0
  131.1703  134.3488  156.9332 H   0  0  0  0  0  0  0  0  0  0  0  0
  130.9753  132.5472  157.9757 C   0  0  0  0  0  0  0  0  0  0  0  0
  131.2731  131.4522  157.1695 C   0  0  0  0  0  0  0  0  0  0  0  0
  131.2036  130.1787  157.6912 C   0  0  0  0  0  0  0  0  0  0  0  0
  130.8288  129.9789  159.0118 C   0  0  0  0  0  0  0  0  0  0  0  0
  130.5263  131.0514  159.8223 C   0  0  0  0  0  0  0  0  0  0  0  0
  130.5964  132.3451  159.3130 C   0  0  0  0  0  0  0  0  0  0  0  0
  130.3650  133.5864  159.8436 N   0  0  0  0  0  0  0  0  0  0  0  0
  130.0876  133.7711  160.7546 H   0  0  0  0  0  0  0  0  0  0  0  0
  129.7640  137.5911  160.6256 C   0  0  0  0  0  0  0  0  0  0  0  0
  130.9290  138.3312  160.3712 C   0  0  0  0  0  0  0  0  0  0  0  0
  131.1297  139.5155  161.0130 C   0  0  0  0  0  0  0  0  0  0  0  0
  130.1943  140.0067  161.9212 C   0  0  0  0  0  0  0  0  0  0  0  0
  129.0531  139.3163  162.1929 C   0  0  0  0  0  0  0  0  0  0  0  0
  128.8122  138.0899  161.5491 C   0  0  0  0  0  0  0  0  0  0  0  0
  127.6453  137.3513  161.8062 C   0  0  0  0  0  0  0  0  0  0  0  0
  125.7110  132.3941  162.8472 H   0  0  0  0  0  0  0  0  0  0  0  0
  123.8941  132.6228  163.0649 H   0  0  0  0  0  0  0  0  0  0  0  0
  126.0296  134.3076  159.6528 H   0  0  0  0  0  0  0  0  0  0  0  0
  126.8628  133.4520  160.9726 H   0  0  0  0  0  0  0  0  0  0  0  0
  125.6250  135.7528  162.0454 H   0  0  0  0  0  0  0  0  0  0  0  0
  128.1975  134.7248  159.7428 H   0  0  0  0  0  0  0  0  0  0  0  0
  131.0051  136.4650  158.5500 H   0  0  0  0  0  0  0  0  0  0  0  0
  131.5652  131.6007  156.1404 H   0  0  0  0  0  0  0  0  0  0  0  0
  131.4389  129.3297  157.0663 H   0  0  0  0  0  0  0  0  0  0  0  0
  130.7741  128.9756  159.4076 H   0  0  0  0  0  0  0  0  0  0  0  0
  130.2352  130.8889  160.8495 H   0  0  0  0  0  0  0  0  0  0  0  0
  131.6631  137.9629  159.6700 H   0  0  0  0  0  0  0  0  0  0  0  0
  132.0275  140.0822  160.8147 H   0  0  0  0  0  0  0  0  0  0  0  0
  130.3773  140.9488  162.4166 H   0  0  0  0  0  0  0  0  0  0  0  0
  128.3366  139.7085  162.8994 H   0  0  0  0  0  0  0  0  0  0  0  0
  126.9122  137.7211  162.5077 H   0  0  0  0  0  0  0  0  0  0  0  0
  1  2  1  0
  2  5  1  0
  2  3  1  0
  2  4  1  0
  4  5  1  0
  4 31  1  0
  4 32  1  0
  5  6  1  1
  5  7  1  0
  7  8  1  0
  7 33  1  0
  7 34  1  0
  8  9  1  0
  8 35  1  0
  9 30  1  0
  9 10  2  0
 10 11  1  0
 10 36  1  0
 11 12  1  0
 11 24  2  0
 12 13  1  0
 12 37  1  0
 13 22  1  0
 13 14  2  0
 14 15  1  0
 14 16  1  0
 16 21  2  0
 16 17  1  0
 17 18  2  0
 17 38  1  0
 18 19  1  0
 18 39  1  0
 19 20  2  0
 19 40  1  0
 20 21  1  0
 20 41  1  0
 21 22  1  0
 22 23  1  0
 24 29  1  0
 24 25  1  0
 25 26  2  0
 25 42  1  0
 26 27  1  0
 26 43  1  0
 27 28  2  0
 27 44  1  0
 28 29  1  0
 28 45  1  0
 29 30  2  0
 30 46  1  0
M  CHG  1  14   1
M  END
>  <DOCK_score>  (1) 
-49.925282

>  <SMILES>  (1) 
FC1(F)C[C@H]1CNc1cc(Nc2[nH]c3ccccc3[nH+]2)c2ccccc2c1

$$$$
