CCc1cccc([C@@H](Nc2[nH]cc(-c3ccc(F)cc3)[nH+]2)c2ccc(F)cc2)c1
     RDKit          3D

 51 54  0  0  1  0  0  0  0  0999 V2000
  125.0291  132.9198  161.9725 C   0  0  0  0  0  0  0  0  0  0  0  0
  125.1697  134.4432  161.9987 C   0  0  0  0  0  0  0  0  0  0  0  0
  125.9832  134.8930  160.8126 C   0  0  0  0  0  0  0  0  0  0  0  0
  125.3546  135.2030  159.6208 C   0  0  0  0  0  0  0  0  0  0  0  0
  126.1008  135.6151  158.5327 C   0  0  0  0  0  0  0  0  0  0  0  0
  127.4758  135.7174  158.6362 C   0  0  0  0  0  0  0  0  0  0  0  0
  128.1040  135.4075  159.8276 C   0  0  0  0  0  0  0  0  0  0  0  0
  129.6027  135.5185  159.9404 C   0  0  1  0  0  0  0  0  0  0  0  0
  129.9678  134.7886  160.6628 H   0  0  0  0  0  0  0  0  0  0  0  0
  130.2113  135.2586  158.6333 N   0  0  0  0  0  0  0  0  0  0  0  0
  130.0124  134.0400  158.0072 C   0  0  0  0  0  0  0  0  0  0  0  0
  129.2713  133.0090  158.4967 N   0  0  0  0  0  0  0  0  0  0  0  0
  128.7920  132.9955  159.3399 H   0  0  0  0  0  0  0  0  0  0  0  0
  129.3281  131.9902  157.5762 C   0  0  0  0  0  0  0  0  0  0  0  0
  130.1014  132.4280  156.5521 C   0  0  0  0  0  0  0  0  0  0  0  0
  130.4441  131.6632  155.3280 C   0  0  0  0  0  0  0  0  0  0  0  0
  130.0774  132.1495  154.0743 C   0  0  0  0  0  0  0  0  0  0  0  0
  130.4033  131.4375  152.9382 C   0  0  0  0  0  0  0  0  0  0  0  0
  131.0838  130.2352  153.0430 C   0  0  0  0  0  0  0  0  0  0  0  0
  131.3963  129.5387  151.9284 F   0  0  0  0  0  0  0  0  0  0  0  0
  131.4453  129.7453  154.2874 C   0  0  0  0  0  0  0  0  0  0  0  0
  131.1286  130.4533  155.4286 C   0  0  0  0  0  0  0  0  0  0  0  0
  130.5022  133.6912  156.8425 N   0  0  0  0  0  0  0  0  0  0  0  0
  131.0636  134.2466  156.2792 H   0  0  0  0  0  0  0  0  0  0  0  0
  129.9707  136.9063  160.3986 C   0  0  0  0  0  0  0  0  0  0  0  0
  130.0748  137.1827  161.7490 C   0  0  0  0  0  0  0  0  0  0  0  0
  130.4176  138.4536  162.1702 C   0  0  0  0  0  0  0  0  0  0  0  0
  130.6461  139.4527  161.2393 C   0  0  0  0  0  0  0  0  0  0  0  0
  130.9759  140.6969  161.6502 F   0  0  0  0  0  0  0  0  0  0  0  0
  130.5359  139.1760  159.8873 C   0  0  0  0  0  0  0  0  0  0  0  0
  130.1981  137.9032  159.4682 C   0  0  0  0  0  0  0  0  0  0  0  0
  127.3582  134.9902  160.9145 C   0  0  0  0  0  0  0  0  0  0  0  0
  124.5287  132.6170  161.0528 H   0  0  0  0  0  0  0  0  0  0  0  0
  126.0177  132.4629  162.0156 H   0  0  0  0  0  0  0  0  0  0  0  0
  124.4407  132.5945  162.8304 H   0  0  0  0  0  0  0  0  0  0  0  0
  125.6701  134.7461  162.9185 H   0  0  0  0  0  0  0  0  0  0  0  0
  124.1811  134.9001  161.9556 H   0  0  0  0  0  0  0  0  0  0  0  0
  124.2808  135.1228  159.5398 H   0  0  0  0  0  0  0  0  0  0  0  0
  125.6100  135.8569  157.6017 H   0  0  0  0  0  0  0  0  0  0  0  0
  128.0588  136.0391  157.7860 H   0  0  0  0  0  0  0  0  0  0  0  0
  130.7537  135.9403  158.2067 H   0  0  0  0  0  0  0  0  0  0  0  0
  128.8481  131.0258  157.6534 H   0  0  0  0  0  0  0  0  0  0  0  0
  129.5430  133.0844  153.9921 H   0  0  0  0  0  0  0  0  0  0  0  0
  130.1232  131.8156  151.9661 H   0  0  0  0  0  0  0  0  0  0  0  0
  131.9754  128.8075  154.3642 H   0  0  0  0  0  0  0  0  0  0  0  0
  131.4110  130.0707  156.3983 H   0  0  0  0  0  0  0  0  0  0  0  0
  129.8922  136.4043  162.4751 H   0  0  0  0  0  0  0  0  0  0  0  0
  130.5030  138.6684  163.2252 H   0  0  0  0  0  0  0  0  0  0  0  0
  130.7137  139.9548  159.1602 H   0  0  0  0  0  0  0  0  0  0  0  0
  130.1122  137.6871  158.4135 H   0  0  0  0  0  0  0  0  0  0  0  0
  127.8495  134.7438  161.8441 H   0  0  0  0  0  0  0  0  0  0  0  0
  1  2  1  0
  1 33  1  0
  1 34  1  0
  1 35  1  0
  2  3  1  0
  2 36  1  0
  2 37  1  0
  3 32  2  0
  3  4  1  0
  4  5  2  0
  4 38  1  0
  5  6  1  0
  5 39  1  0
  6  7  2  0
  6 40  1  0
  7  8  1  0
  7 32  1  0
  8  9  1  1
  8 10  1  0
  8 25  1  0
 10 41  1  0
 11 10  1  0
 11 23  2  0
 11 12  1  0
 12 13  1  0
 12 14  1  0
 14 15  2  0
 14 42  1  0
 15 16  1  0
 15 23  1  0
 16 22  1  0
 16 17  2  0
 17 18  1  0
 17 43  1  0
 18 19  2  0
 18 44  1  0
 19 20  1  0
 19 21  1  0
 21 22  2  0
 21 45  1  0
 22 46  1  0
 23 24  1  0
 25 31  1  0
 25 26  2  0
 26 27  1  0
 26 47  1  0
 27 28  2  0
 27 48  1  0
 28 29  1  0
 28 30  1  0
 30 31  2  0
 30 49  1  0
 31 50  1  0
 32 51  1  0
M  CHG  1  23   1
M  END
>  <DOCK_score>  (1) 
-60.99926

>  <SMILES>  (1) 
CCc1cccc([C@@H](Nc2[nH]cc(-c3ccc(F)cc3)[nH+]2)c2ccc(F)cc2)c1

$$$$
