O=C1CC[C@H](NC(NC2CCCC2)=[NH+][C@H]2COc3ccccc3C2)CN1
     RDKit          3D

 55 58  0  0  1  0  0  0  0  0999 V2000
  124.0976  133.5959  161.7437 O   0  0  0  0  0  0  0  0  0  0  0  0
  125.1963  134.0363  161.4797 C   0  0  0  0  0  0  0  0  0  0  0  0
  126.0897  133.2273  160.5838 C   0  0  0  0  0  0  0  0  0  0  0  0
  127.5370  133.7062  160.7216 C   0  0  0  0  0  0  0  0  0  0  0  0
  127.5564  135.2341  160.5923 C   0  0  2  0  0  0  0  0  0  0  0  0
  127.0386  135.5304  159.6800 H   0  0  0  0  0  0  0  0  0  0  0  0
  128.9425  135.7060  160.5460 N   0  0  0  0  0  0  0  0  0  0  0  0
  129.7809  135.2792  159.5436 C   0  0  0  0  0  0  0  0  0  0  0  0
  129.3184  134.4095  158.5844 N   0  0  0  0  0  0  0  0  0  0  0  0
  130.2383  133.4623  157.9498 C   0  0  0  0  0  0  0  0  0  0  0  0
  129.7378  133.1072  156.5345 C   0  0  0  0  0  0  0  0  0  0  0  0
  130.0805  131.6042  156.3772 C   0  0  0  0  0  0  0  0  0  0  0  0
  129.7927  131.0375  157.7896 C   0  0  0  0  0  0  0  0  0  0  0  0
  130.2736  132.1470  158.7476 C   0  0  0  0  0  0  0  0  0  0  0  0
  131.0143  135.6989  159.5025 N   0  0  0  0  0  0  0  0  0  0  0  0
  131.4694  135.7844  158.6502 H   0  0  0  0  0  0  0  0  0  0  0  0
  131.7130  136.0414  160.7437 C   0  0  1  0  0  0  0  0  0  0  0  0
  131.1815  136.8439  161.2551 H   0  0  0  0  0  0  0  0  0  0  0  0
  131.7866  134.8082  161.6530 C   0  0  0  0  0  0  0  0  0  0  0  0
  132.3794  135.1969  162.8931 O   0  0  0  0  0  0  0  0  0  0  0  0
  133.5341  135.9112  162.8483 C   0  0  0  0  0  0  0  0  0  0  0  0
  134.3095  135.9921  164.0009 C   0  0  0  0  0  0  0  0  0  0  0  0
  135.4846  136.7149  163.9976 C   0  0  0  0  0  0  0  0  0  0  0  0
  135.8949  137.3611  162.8459 C   0  0  0  0  0  0  0  0  0  0  0  0
  135.1288  137.2812  161.6996 C   0  0  0  0  0  0  0  0  0  0  0  0
  133.9488  136.5561  161.6964 C   0  0  0  0  0  0  0  0  0  0  0  0
  133.1418  136.4893  160.4247 C   0  0  0  0  0  0  0  0  0  0  0  0
  126.8481  135.8405  161.8043 C   0  0  0  0  0  0  0  0  0  0  0  0
  125.5467  135.2128  162.0007 N   0  0  0  0  0  0  0  0  0  0  0  0
  125.7668  133.3439  159.5493 H   0  0  0  0  0  0  0  0  0  0  0  0
  126.0277  132.1763  160.8660 H   0  0  0  0  0  0  0  0  0  0  0  0
  128.1467  133.2635  159.9339 H   0  0  0  0  0  0  0  0  0  0  0  0
  127.9290  133.4154  161.6961 H   0  0  0  0  0  0  0  0  0  0  0  0
  129.2688  136.3195  161.2228 H   0  0  0  0  0  0  0  0  0  0  0  0
  128.3830  134.4231  158.3279 H   0  0  0  0  0  0  0  0  0  0  0  0
  131.2382  133.8928  157.8952 H   0  0  0  0  0  0  0  0  0  0  0  0
  128.6615  133.2628  156.4603 H   0  0  0  0  0  0  0  0  0  0  0  0
  130.2623  133.6994  155.7846 H   0  0  0  0  0  0  0  0  0  0  0  0
  131.1304  131.4734  156.1150 H   0  0  0  0  0  0  0  0  0  0  0  0
  129.4368  131.1339  155.6338 H   0  0  0  0  0  0  0  0  0  0  0  0
  130.3570  130.1198  157.9548 H   0  0  0  0  0  0  0  0  0  0  0  0
  128.7256  130.8568  157.9203 H   0  0  0  0  0  0  0  0  0  0  0  0
  131.2907  131.9387  159.0794 H   0  0  0  0  0  0  0  0  0  0  0  0
  129.6063  132.2134  159.6069 H   0  0  0  0  0  0  0  0  0  0  0  0
  130.7826  134.4228  161.8308 H   0  0  0  0  0  0  0  0  0  0  0  0
  132.3965  134.0389  161.1797 H   0  0  0  0  0  0  0  0  0  0  0  0
  133.9903  135.4876  164.9009 H   0  0  0  0  0  0  0  0  0  0  0  0
  136.0838  136.7762  164.8942 H   0  0  0  0  0  0  0  0  0  0  0  0
  136.8138  137.9284  162.8430 H   0  0  0  0  0  0  0  0  0  0  0  0
  135.4515  137.7868  160.8013 H   0  0  0  0  0  0  0  0  0  0  0  0
  133.6012  135.7758  159.7406 H   0  0  0  0  0  0  0  0  0  0  0  0
  133.1176  137.4745  159.9589 H   0  0  0  0  0  0  0  0  0  0  0  0
  127.4587  135.6846  162.6937 H   0  0  0  0  0  0  0  0  0  0  0  0
  126.7148  136.9105  161.6456 H   0  0  0  0  0  0  0  0  0  0  0  0
  124.8936  135.6824  162.5428 H   0  0  0  0  0  0  0  0  0  0  0  0
  1  2  2  0
  2 29  1  0
  2  3  1  0
  3  4  1  0
  3 30  1  0
  3 31  1  0
  4  5  1  0
  4 32  1  0
  4 33  1  0
  5  6  1  6
  5  7  1  0
  5 28  1  0
  7 34  1  0
  8  7  1  0
  8  9  1  0
  8 15  2  0
  9 10  1  0
  9 35  1  0
 10 14  1  0
 10 11  1  0
 10 36  1  0
 11 12  1  0
 11 37  1  0
 11 38  1  0
 12 13  1  0
 12 39  1  0
 12 40  1  0
 13 14  1  0
 13 41  1  0
 13 42  1  0
 14 43  1  0
 14 44  1  0
 15 16  1  0
 15 17  1  0
 17 18  1  1
 17 27  1  0
 17 19  1  0
 19 20  1  0
 19 45  1  0
 19 46  1  0
 20 21  1  0
 21 26  2  0
 21 22  1  0
 22 23  2  0
 22 47  1  0
 23 24  1  0
 23 48  1  0
 24 25  2  0
 24 49  1  0
 25 26  1  0
 25 50  1  0
 26 27  1  0
 27 51  1  0
 27 52  1  0
 28 29  1  0
 28 53  1  0
 28 54  1  0
 29 55  1  0
M  CHG  1  15   1
M  END
>  <DOCK_score>  (1) 
-42.629807

>  <SMILES>  (1) 
O=C1CC[C@H](NC(NC2CCCC2)=[NH+][C@H]2COc3ccccc3C2)CN1

$$$$
