CCOC(=O)c1oc2ccc(Br)cc2c1C[NH2+][C@H]1COC2(CCC2)C1
     RDKit          3D

 48 51  0  0  1  0  0  0  0  0999 V2000
  126.2181  133.9997  161.7901 C   0  0  0  0  0  0  0  0  0  0  0  0
  126.1238  135.0292  160.6623 C   0  0  0  0  0  0  0  0  0  0  0  0
  127.4231  135.6444  160.4586 O   0  0  0  0  0  0  0  0  0  0  0  0
  127.6933  136.7556  161.1734 C   0  0  0  0  0  0  0  0  0  0  0  0
  126.8650  137.1978  161.9457 O   0  0  0  0  0  0  0  0  0  0  0  0
  128.9874  137.4312  161.0189 C   0  0  0  0  0  0  0  0  0  0  0  0
  129.1963  138.7552  161.1768 O   0  0  0  0  0  0  0  0  0  0  0  0
  130.4908  139.0647  160.9677 C   0  0  0  0  0  0  0  0  0  0  0  0
  131.2022  140.2587  161.0061 C   0  0  0  0  0  0  0  0  0  0  0  0
  132.5540  140.2609  160.7392 C   0  0  0  0  0  0  0  0  0  0  0  0
  133.2188  139.0806  160.4312 C   0  0  0  0  0  0  0  0  0  0  0  0
  135.0746  139.1145  160.0699 Br  0  0  0  0  0  0  0  0  0  0  0  0
  132.5401  137.8949  160.3878 C   0  0  0  0  0  0  0  0  0  0  0  0
  131.1700  137.8711  160.6607 C   0  0  0  0  0  0  0  0  0  0  0  0
  130.1564  136.8179  160.6960 C   0  0  0  0  0  0  0  0  0  0  0  0
  130.3666  135.3488  160.4337 C   0  0  0  0  0  0  0  0  0  0  0  0
  130.1695  135.0735  159.0042 N   0  0  0  0  0  0  0  0  0  0  0  0
  129.2311  135.3318  158.7381 H   0  0  0  0  0  0  0  0  0  0  0  0
  130.8319  135.6098  158.4640 H   0  0  0  0  0  0  0  0  0  0  0  0
  130.3744  133.6415  158.7485 C   0  0  1  0  0  0  0  0  0  0  0  0
  131.2152  133.2673  159.3325 H   0  0  0  0  0  0  0  0  0  0  0  0
  129.0945  132.8469  159.0758 C   0  0  0  0  0  0  0  0  0  0  0  0
  128.6339  132.2472  157.8504 O   0  0  0  0  0  0  0  0  0  0  0  0
  129.7752  132.1146  156.9975 C   0  0  0  0  0  0  0  0  0  0  0  0
  129.4892  131.7801  155.5359 C   0  0  0  0  0  0  0  0  0  0  0  0
  130.7580  130.9087  155.5785 C   0  0  0  0  0  0  0  0  0  0  0  0
  130.5436  130.7996  157.0995 C   0  0  0  0  0  0  0  0  0  0  0  0
  130.6052  133.3884  157.2368 C   0  0  0  0  0  0  0  0  0  0  0  0
  126.9450  133.2329  161.5223 H   0  0  0  0  0  0  0  0  0  0  0  0
  126.5336  134.4947  162.7086 H   0  0  0  0  0  0  0  0  0  0  0  0
  125.2426  133.5379  161.9430 H   0  0  0  0  0  0  0  0  0  0  0  0
  125.3968  135.7959  160.9301 H   0  0  0  0  0  0  0  0  0  0  0  0
  125.8081  134.5342  159.7440 H   0  0  0  0  0  0  0  0  0  0  0  0
  130.6963  141.1826  161.2445 H   0  0  0  0  0  0  0  0  0  0  0  0
  133.1029  141.1905  160.7702 H   0  0  0  0  0  0  0  0  0  0  0  0
  133.0614  136.9800  160.1481 H   0  0  0  0  0  0  0  0  0  0  0  0
  131.3803  135.0697  160.7211 H   0  0  0  0  0  0  0  0  0  0  0  0
  129.6510  134.7694  161.0172 H   0  0  0  0  0  0  0  0  0  0  0  0
  129.3178  132.0700  159.8069 H   0  0  0  0  0  0  0  0  0  0  0  0
  128.3316  133.5190  159.4686 H   0  0  0  0  0  0  0  0  0  0  0  0
  128.5717  131.2104  155.3888 H   0  0  0  0  0  0  0  0  0  0  0  0
  129.5693  132.6372  154.8671 H   0  0  0  0  0  0  0  0  0  0  0  0
  131.6656  131.4460  155.3035 H   0  0  0  0  0  0  0  0  0  0  0  0
  130.6526  129.9589  155.0540 H   0  0  0  0  0  0  0  0  0  0  0  0
  131.4645  130.8745  157.6778 H   0  0  0  0  0  0  0  0  0  0  0  0
  129.9244  129.9529  157.3960 H   0  0  0  0  0  0  0  0  0  0  0  0
  130.2260  134.2182  156.6404 H   0  0  0  0  0  0  0  0  0  0  0  0
  131.6602  133.2107  157.0282 H   0  0  0  0  0  0  0  0  0  0  0  0
  1  2  1  0
  1 29  1  0
  1 30  1  0
  1 31  1  0
  2  3  1  0
  2 32  1  0
  2 33  1  0
  3  4  1  0
  4  5  2  0
  4  6  1  0
  6 15  2  0
  6  7  1  0
  7  8  1  0
  8 14  2  0
  8  9  1  0
  9 10  2  0
  9 34  1  0
 10 11  1  0
 10 35  1  0
 11 12  1  0
 11 13  2  0
 13 14  1  0
 13 36  1  0
 14 15  1  0
 15 16  1  0
 16 17  1  0
 16 37  1  0
 16 38  1  0
 17 18  1  0
 17 19  1  0
 17 20  1  0
 20 21  1  1
 20 28  1  0
 20 22  1  0
 22 23  1  0
 22 39  1  0
 22 40  1  0
 23 24  1  0
 24 27  1  0
 24 25  1  0
 24 28  1  0
 25 26  1  0
 25 41  1  0
 25 42  1  0
 26 27  1  0
 26 43  1  0
 26 44  1  0
 27 45  1  0
 27 46  1  0
 28 47  1  0
 28 48  1  0
M  CHG  1  17   1
M  END
>  <DOCK_score>  (1) 
-41.099365

>  <SMILES>  (1) 
CCOC(=O)c1oc2ccc(Br)cc2c1C[NH2+][C@H]1COC2(CCC2)C1

$$$$
