CCc1ccc(-c2c[nH]c(N[C@@H](c3ccc(CC(C)C)cc3)c3cccs3)[nH+]2)cc1
     RDKit          3D

 60 63  0  0  1  0  0  0  0  0999 V2000
  130.4154  128.4899  151.3118 C   0  0  0  0  0  0  0  0  0  0  0  0
  131.5172  129.4827  151.6871 C   0  0  0  0  0  0  0  0  0  0  0  0
  131.1553  130.1706  152.9782 C   0  0  0  0  0  0  0  0  0  0  0  0
  131.5554  129.6257  154.1845 C   0  0  0  0  0  0  0  0  0  0  0  0
  131.2317  130.2542  155.3699 C   0  0  0  0  0  0  0  0  0  0  0  0
  130.4904  131.4342  155.3501 C   0  0  0  0  0  0  0  0  0  0  0  0
  130.1348  132.1114  156.6210 C   0  0  0  0  0  0  0  0  0  0  0  0
  129.4057  131.5781  157.6325 C   0  0  0  0  0  0  0  0  0  0  0  0
  129.3161  132.5399  158.6093 N   0  0  0  0  0  0  0  0  0  0  0  0
  128.8548  132.4552  159.4583 H   0  0  0  0  0  0  0  0  0  0  0  0
  129.9936  133.6337  158.1657 C   0  0  0  0  0  0  0  0  0  0  0  0
  130.1428  134.8244  158.8558 N   0  0  0  0  0  0  0  0  0  0  0  0
  129.1022  135.2665  159.7874 C   0  0  1  0  0  0  0  0  0  0  0  0
  128.9771  134.5210  160.5726 H   0  0  0  0  0  0  0  0  0  0  0  0
  129.5049  136.5818  160.4031 C   0  0  0  0  0  0  0  0  0  0  0  0
  129.7222  137.6841  159.5977 C   0  0  0  0  0  0  0  0  0  0  0  0
  130.0874  138.8917  160.1628 C   0  0  0  0  0  0  0  0  0  0  0  0
  130.2444  138.9945  161.5324 C   0  0  0  0  0  0  0  0  0  0  0  0
  130.6471  140.3098  162.1480 C   0  0  0  0  0  0  0  0  0  0  0  0
  132.1730  140.3911  162.2248 C   0  0  0  0  0  0  0  0  0  0  0  0
  132.5816  141.7265  162.8498 C   0  0  0  0  0  0  0  0  0  0  0  0
  132.7023  139.2421  163.0851 C   0  0  0  0  0  0  0  0  0  0  0  0
  130.0316  137.8910  162.3372 C   0  0  0  0  0  0  0  0  0  0  0  0
  129.6623  136.6845  161.7725 C   0  0  0  0  0  0  0  0  0  0  0  0
  127.8022  135.4367  159.0445 C   0  0  0  0  0  0  0  0  0  0  0  0
  126.5881  135.2685  159.5706 C   0  0  0  0  0  0  0  0  0  0  0  0
  125.5380  135.4831  158.6947 C   0  0  0  0  0  0  0  0  0  0  0  0
  125.8994  135.8168  157.4548 C   0  0  0  0  0  0  0  0  0  0  0  0
  127.6539  135.8801  157.3489 S   0  0  0  0  0  0  0  0  0  0  0  0
  130.4863  133.3717  156.9797 N   0  0  0  0  0  0  0  0  0  0  0  0
  131.0157  133.9822  156.4431 H   0  0  0  0  0  0  0  0  0  0  0  0
  130.0850  131.9760  154.1316 C   0  0  0  0  0  0  0  0  0  0  0  0
  130.4193  131.3420  152.9522 C   0  0  0  0  0  0  0  0  0  0  0  0
  129.4725  129.0225  151.1880 H   0  0  0  0  0  0  0  0  0  0  0  0
  130.6771  127.9925  150.3779 H   0  0  0  0  0  0  0  0  0  0  0  0
  130.3118  127.7468  152.1025 H   0  0  0  0  0  0  0  0  0  0  0  0
  132.4598  128.9507  151.8104 H   0  0  0  0  0  0  0  0  0  0  0  0
  131.6205  130.2264  150.8958 H   0  0  0  0  0  0  0  0  0  0  0  0
  132.1256  128.7086  154.1989 H   0  0  0  0  0  0  0  0  0  0  0  0
  131.5486  129.8301  156.3112 H   0  0  0  0  0  0  0  0  0  0  0  0
  128.9773  130.5873  157.6640 H   0  0  0  0  0  0  0  0  0  0  0  0
  130.9365  135.3660  158.7226 H   0  0  0  0  0  0  0  0  0  0  0  0
  129.6035  137.6027  158.5274 H   0  0  0  0  0  0  0  0  0  0  0  0
  130.2533  139.7539  159.5340 H   0  0  0  0  0  0  0  0  0  0  0  0
  130.2699  141.1284  161.5349 H   0  0  0  0  0  0  0  0  0  0  0  0
  130.2281  140.3846  163.1515 H   0  0  0  0  0  0  0  0  0  0  0  0
  132.5918  140.3164  161.2212 H   0  0  0  0  0  0  0  0  0  0  0  0
  133.6687  141.7844  162.9045 H   0  0  0  0  0  0  0  0  0  0  0  0
  132.2045  142.5451  162.2369 H   0  0  0  0  0  0  0  0  0  0  0  0
  132.1628  141.8011  163.8534 H   0  0  0  0  0  0  0  0  0  0  0  0
  132.4112  138.2907  162.6399 H   0  0  0  0  0  0  0  0  0  0  0  0
  133.7893  139.3000  163.1398 H   0  0  0  0  0  0  0  0  0  0  0  0
  132.2836  139.3168  164.0888 H   0  0  0  0  0  0  0  0  0  0  0  0
  130.1543  137.9714  163.4072 H   0  0  0  0  0  0  0  0  0  0  0  0
  129.4964  135.8223  162.4014 H   0  0  0  0  0  0  0  0  0  0  0  0
  126.4359  134.9885  160.6026 H   0  0  0  0  0  0  0  0  0  0  0  0
  124.5043  135.3839  158.9915 H   0  0  0  0  0  0  0  0  0  0  0  0
  125.2189  136.0171  156.6405 H   0  0  0  0  0  0  0  0  0  0  0  0
  129.5103  132.8902  154.1104 H   0  0  0  0  0  0  0  0  0  0  0  0
  130.1054  131.7608  152.0074 H   0  0  0  0  0  0  0  0  0  0  0  0
  1  2  1  0
  1 34  1  0
  1 35  1  0
  1 36  1  0
  2  3  1  0
  2 37  1  0
  2 38  1  0
  3 33  2  0
  3  4  1  0
  4  5  2  0
  4 39  1  0
  5  6  1  0
  5 40  1  0
  6  7  1  0
  6 32  2  0
  7 30  1  0
  7  8  2  0
  8  9  1  0
  8 41  1  0
  9 10  1  0
  9 11  1  0
 11 12  1  0
 11 30  2  0
 12 13  1  0
 12 42  1  0
 13 14  1  1
 13 15  1  0
 13 25  1  0
 15 24  1  0
 15 16  2  0
 16 17  1  0
 16 43  1  0
 17 18  2  0
 17 44  1  0
 18 19  1  0
 18 23  1  0
 19 20  1  0
 19 45  1  0
 19 46  1  0
 20 21  1  0
 20 22  1  0
 20 47  1  0
 21 48  1  0
 21 49  1  0
 21 50  1  0
 22 51  1  0
 22 52  1  0
 22 53  1  0
 23 24  2  0
 23 54  1  0
 24 55  1  0
 25 29  1  0
 25 26  2  0
 26 27  1  0
 26 56  1  0
 27 28  2  0
 27 57  1  0
 28 29  1  0
 28 58  1  0
 30 31  1  0
 32 33  1  0
 32 59  1  0
 33 60  1  0
M  CHG  1  30   1
M  END
>  <DOCK_score>  (1) 
-62.511909

>  <SMILES>  (1) 
CCc1ccc(-c2c[nH]c(N[C@@H](c3ccc(CC(C)C)cc3)c3cccs3)[nH+]2)cc1

$$$$
