O=C1CC[C@H](NC(NC2CC(F)(F)C2)=[NH+][C@H]2COc3cc(F)ccc3C2)CN1
     RDKit          3D

 52 55  0  0  1  0  0  0  0  0999 V2000
  123.7846  133.6873  161.5238 O   0  0  0  0  0  0  0  0  0  0  0  0
  124.9527  133.8321  161.2315 C   0  0  0  0  0  0  0  0  0  0  0  0
  125.7498  132.6134  160.8643 C   0  0  0  0  0  0  0  0  0  0  0  0
  127.2461  132.9220  160.9584 C   0  0  0  0  0  0  0  0  0  0  0  0
  127.5190  134.2316  160.2086 C   0  0  2  0  0  0  0  0  0  0  0  0
  127.1052  134.1698  159.2022 H   0  0  0  0  0  0  0  0  0  0  0  0
  128.9637  134.4625  160.1326 N   0  0  0  0  0  0  0  0  0  0  0  0
  129.6830  133.9732  159.0681 C   0  0  0  0  0  0  0  0  0  0  0  0
  129.0466  133.2672  158.0749 N   0  0  0  0  0  0  0  0  0  0  0  0
  129.8130  132.7457  156.9405 C   0  0  0  0  0  0  0  0  0  0  0  0
  129.1325  131.5651  156.2278 C   0  0  0  0  0  0  0  0  0  0  0  0
  130.5315  130.9327  156.1124 C   0  0  0  0  0  0  0  0  0  0  0  0
  131.2168  131.3010  154.9496 F   0  0  0  0  0  0  0  0  0  0  0  0
  130.5438  129.5519  156.3376 F   0  0  0  0  0  0  0  0  0  0  0  0
  130.9227  131.7617  157.3470 C   0  0  0  0  0  0  0  0  0  0  0  0
  130.9683  134.1788  159.0004 N   0  0  0  0  0  0  0  0  0  0  0  0
  131.4037  134.2472  158.1363 H   0  0  0  0  0  0  0  0  0  0  0  0
  131.7554  134.3065  160.2294 C   0  0  1  0  0  0  0  0  0  0  0  0
  131.2975  133.7146  161.0221 H   0  0  0  0  0  0  0  0  0  0  0  0
  133.1878  133.8172  159.9793 C   0  0  0  0  0  0  0  0  0  0  0  0
  133.8991  133.8558  161.2172 O   0  0  0  0  0  0  0  0  0  0  0  0
  133.8335  134.9967  161.9516 C   0  0  0  0  0  0  0  0  0  0  0  0
  134.7793  135.1968  162.9519 C   0  0  0  0  0  0  0  0  0  0  0  0
  134.7426  136.3422  163.7242 C   0  0  0  0  0  0  0  0  0  0  0  0
  135.6622  136.5331  164.6952 F   0  0  0  0  0  0  0  0  0  0  0  0
  133.7613  137.2941  163.5013 C   0  0  0  0  0  0  0  0  0  0  0  0
  132.8260  137.0999  162.5045 C   0  0  0  0  0  0  0  0  0  0  0  0
  132.8566  135.9516  161.7302 C   0  0  0  0  0  0  0  0  0  0  0  0
  131.8167  135.7762  160.6526 C   0  0  0  0  0  0  0  0  0  0  0  0
  126.8554  135.3794  160.9706 C   0  0  0  0  0  0  0  0  0  0  0  0
  125.4605  135.0650  161.2531 N   0  0  0  0  0  0  0  0  0  0  0  0
  125.5052  132.3144  159.8450 H   0  0  0  0  0  0  0  0  0  0  0  0
  125.5041  131.8005  161.5476 H   0  0  0  0  0  0  0  0  0  0  0  0
  127.8170  132.1127  160.5032 H   0  0  0  0  0  0  0  0  0  0  0  0
  127.5332  133.0313  162.0042 H   0  0  0  0  0  0  0  0  0  0  0  0
  129.4128  134.9607  160.8334 H   0  0  0  0  0  0  0  0  0  0  0  0
  128.0900  133.1142  158.1251 H   0  0  0  0  0  0  0  0  0  0  0  0
  130.1511  133.5291  156.2622 H   0  0  0  0  0  0  0  0  0  0  0  0
  128.4509  131.0037  156.8666 H   0  0  0  0  0  0  0  0  0  0  0  0
  128.6917  131.8306  155.2669 H   0  0  0  0  0  0  0  0  0  0  0  0
  131.9252  132.1858  157.2883 H   0  0  0  0  0  0  0  0  0  0  0  0
  130.7315  131.2542  158.2924 H   0  0  0  0  0  0  0  0  0  0  0  0
  133.1657  132.7954  159.6002 H   0  0  0  0  0  0  0  0  0  0  0  0
  133.6767  134.4678  159.2543 H   0  0  0  0  0  0  0  0  0  0  0  0
  135.5441  134.4544  163.1259 H   0  0  0  0  0  0  0  0  0  0  0  0
  133.7303  138.1896  164.1044 H   0  0  0  0  0  0  0  0  0  0  0  0
  132.0643  137.8453  162.3299 H   0  0  0  0  0  0  0  0  0  0  0  0
  130.8432  136.0845  161.0341 H   0  0  0  0  0  0  0  0  0  0  0  0
  132.0792  136.3908  159.7916 H   0  0  0  0  0  0  0  0  0  0  0  0
  127.3852  135.5428  161.9090 H   0  0  0  0  0  0  0  0  0  0  0  0
  126.9054  136.2872  160.3693 H   0  0  0  0  0  0  0  0  0  0  0  0
  124.8642  135.7984  161.4706 H   0  0  0  0  0  0  0  0  0  0  0  0
  1  2  2  0
  2 31  1  0
  2  3  1  0
  3  4  1  0
  3 32  1  0
  3 33  1  0
  4  5  1  0
  4 34  1  0
  4 35  1  0
  5  6  1  6
  5  7  1  0
  5 30  1  0
  7 36  1  0
  8  7  1  0
  8  9  1  0
  8 16  2  0
  9 10  1  0
  9 37  1  0
 10 15  1  0
 10 11  1  0
 10 38  1  0
 11 12  1  0
 11 39  1  0
 11 40  1  0
 12 13  1  0
 12 14  1  0
 12 15  1  0
 15 41  1  0
 15 42  1  0
 16 17  1  0
 16 18  1  0
 18 19  1  1
 18 29  1  0
 18 20  1  0
 20 21  1  0
 20 43  1  0
 20 44  1  0
 21 22  1  0
 22 28  2  0
 22 23  1  0
 23 24  2  0
 23 45  1  0
 24 25  1  0
 24 26  1  0
 26 27  2  0
 26 46  1  0
 27 28  1  0
 27 47  1  0
 28 29  1  0
 29 48  1  0
 29 49  1  0
 30 31  1  0
 30 50  1  0
 30 51  1  0
 31 52  1  0
M  CHG  1  16   1
M  END
>  <DOCK_score>  (1) 
-45.501957

>  <SMILES>  (1) 
O=C1CC[C@H](NC(NC2CC(F)(F)C2)=[NH+][C@H]2COc3cc(F)ccc3C2)CN1

$$$$
