Fc1ccccc1C[C@H](Nc1[nH]cc(-c2ccc(C3=CCC=CC3)cc2)[nH+]1)c1ccccc1
     RDKit          3D

 60 64  0  0  1  0  0  0  0  0999 V2000
  131.8997  139.8126  160.1488 F   0  0  0  0  0  0  0  0  0  0  0  0
  132.8977  139.0943  160.7086 C   0  0  0  0  0  0  0  0  0  0  0  0
  134.2128  139.3389  160.3502 C   0  0  0  0  0  0  0  0  0  0  0  0
  135.2326  138.6035  160.9232 C   0  0  0  0  0  0  0  0  0  0  0  0
  134.9404  137.6234  161.8538 C   0  0  0  0  0  0  0  0  0  0  0  0
  133.6286  137.3823  162.2165 C   0  0  0  0  0  0  0  0  0  0  0  0
  132.6063  138.1129  161.6406 C   0  0  0  0  0  0  0  0  0  0  0  0
  131.1758  137.8456  162.0317 C   0  0  0  0  0  0  0  0  0  0  0  0
  130.8189  136.3954  161.6996 C   0  0  2  0  0  0  0  0  0  0  0  0
  131.4776  135.7238  162.2502 H   0  0  0  0  0  0  0  0  0  0  0  0
  130.9823  136.1691  160.2615 N   0  0  0  0  0  0  0  0  0  0  0  0
  130.7156  134.9224  159.7221 C   0  0  0  0  0  0  0  0  0  0  0  0
  130.2916  133.8321  160.4178 N   0  0  0  0  0  0  0  0  0  0  0  0
  130.1237  133.7892  161.3723 H   0  0  0  0  0  0  0  0  0  0  0  0
  130.1456  132.8037  159.5194 C   0  0  0  0  0  0  0  0  0  0  0  0
  130.4845  133.2946  158.3007 C   0  0  0  0  0  0  0  0  0  0  0  0
  130.4783  132.5413  157.0241 C   0  0  0  0  0  0  0  0  0  0  0  0
  130.2220  133.2052  155.8240 C   0  0  0  0  0  0  0  0  0  0  0  0
  130.2209  132.5071  154.6374 C   0  0  0  0  0  0  0  0  0  0  0  0
  130.4662  131.1325  154.6359 C   0  0  0  0  0  0  0  0  0  0  0  0
  130.4603  130.3817  153.3641 C   0  0  0  0  0  0  0  0  0  0  0  0
  129.6839  130.7997  152.3876 C   0  0  0  0  0  0  0  0  0  0  0  0
  129.6137  130.1086  151.0587 C   0  0  0  0  0  0  0  0  0  0  0  0
  130.1163  128.6998  151.1550 C   0  0  0  0  0  0  0  0  0  0  0  0
  130.8767  128.2842  152.1203 C   0  0  0  0  0  0  0  0  0  0  0  0
  131.3345  129.1700  153.2393 C   0  0  0  0  0  0  0  0  0  0  0  0
  130.7171  130.4672  155.8386 C   0  0  0  0  0  0  0  0  0  0  0  0
  130.7229  131.1677  157.0239 C   0  0  0  0  0  0  0  0  0  0  0  0
  130.8244  134.5991  158.4567 N   0  0  0  0  0  0  0  0  0  0  0  0
  131.1048  135.1962  157.7456 H   0  0  0  0  0  0  0  0  0  0  0  0
  129.3882  136.1279  162.0907 C   0  0  0  0  0  0  0  0  0  0  0  0
  129.0931  135.6685  163.3607 C   0  0  0  0  0  0  0  0  0  0  0  0
  127.7809  135.4237  163.7196 C   0  0  0  0  0  0  0  0  0  0  0  0
  126.7636  135.6382  162.8085 C   0  0  0  0  0  0  0  0  0  0  0  0
  127.0586  136.0981  161.5386 C   0  0  0  0  0  0  0  0  0  0  0  0
  128.3708  136.3437  161.1801 C   0  0  0  0  0  0  0  0  0  0  0  0
  134.4413  140.1043  159.6236 H   0  0  0  0  0  0  0  0  0  0  0  0
  136.2583  138.7935  160.6435 H   0  0  0  0  0  0  0  0  0  0  0  0
  135.7382  137.0492  162.3014 H   0  0  0  0  0  0  0  0  0  0  0  0
  133.4019  136.6198  162.9469 H   0  0  0  0  0  0  0  0  0  0  0  0
  130.5170  138.5171  161.4809 H   0  0  0  0  0  0  0  0  0  0  0  0
  131.0541  138.0140  163.1016 H   0  0  0  0  0  0  0  0  0  0  0  0
  131.2775  136.8929  159.6871 H   0  0  0  0  0  0  0  0  0  0  0  0
  129.8225  131.7971  159.7404 H   0  0  0  0  0  0  0  0  0  0  0  0
  130.0287  134.2678  155.8254 H   0  0  0  0  0  0  0  0  0  0  0  0
  130.0266  133.0219  153.7080 H   0  0  0  0  0  0  0  0  0  0  0  0
  129.0764  131.6781  152.5481 H   0  0  0  0  0  0  0  0  0  0  0  0
  130.2204  130.6551  150.3354 H   0  0  0  0  0  0  0  0  0  0  0  0
  128.5787  130.0968  150.7195 H   0  0  0  0  0  0  0  0  0  0  0  0
  129.8312  127.9978  150.3853 H   0  0  0  0  0  0  0  0  0  0  0  0
  131.1966  127.2526  152.1164 H   0  0  0  0  0  0  0  0  0  0  0  0
  132.3595  129.4872  153.0473 H   0  0  0  0  0  0  0  0  0  0  0  0
  131.3033  128.6093  154.1733 H   0  0  0  0  0  0  0  0  0  0  0  0
  130.9065  129.4039  155.8386 H   0  0  0  0  0  0  0  0  0  0  0  0
  130.9171  130.6537  157.9538 H   0  0  0  0  0  0  0  0  0  0  0  0
  129.8876  135.5053  164.0739 H   0  0  0  0  0  0  0  0  0  0  0  0
  127.5505  135.0645  164.7117 H   0  0  0  0  0  0  0  0  0  0  0  0
  125.7383  135.4462  163.0886 H   0  0  0  0  0  0  0  0  0  0  0  0
  126.2639  136.2650  160.8266 H   0  0  0  0  0  0  0  0  0  0  0  0
  128.6013  136.7027  160.1878 H   0  0  0  0  0  0  0  0  0  0  0  0
  1  2  1  0
  2  7  2  0
  2  3  1  0
  3  4  2  0
  3 37  1  0
  4  5  1  0
  4 38  1  0
  5  6  2  0
  5 39  1  0
  6  7  1  0
  6 40  1  0
  7  8  1  0
  8  9  1  0
  8 41  1  0
  8 42  1  0
  9 10  1  1
  9 11  1  0
  9 31  1  0
 11 43  1  0
 12 11  1  0
 12 29  2  0
 12 13  1  0
 13 14  1  0
 13 15  1  0
 15 16  2  0
 15 44  1  0
 16 17  1  0
 16 29  1  0
 17 28  1  0
 17 18  2  0
 18 19  1  0
 18 45  1  0
 19 20  2  0
 19 46  1  0
 20 21  1  0
 20 27  1  0
 21 26  1  0
 21 22  2  0
 22 23  1  0
 22 47  1  0
 23 24  1  0
 23 48  1  0
 23 49  1  0
 24 25  2  0
 24 50  1  0
 25 26  1  0
 25 51  1  0
 26 52  1  0
 26 53  1  0
 27 28  2  0
 27 54  1  0
 28 55  1  0
 29 30  1  0
 31 36  1  0
 31 32  2  0
 32 33  1  0
 32 56  1  0
 33 34  2  0
 33 57  1  0
 34 35  1  0
 34 58  1  0
 35 36  2  0
 35 59  1  0
 36 60  1  0
M  CHG  1  29   1
M  END
>  <DOCK_score>  (1) 
-61.026436

>  <SMILES>  (1) 
Fc1ccccc1C[C@H](Nc1[nH]cc(-c2ccc(C3=CCC=CC3)cc2)[nH+]1)c1ccccc1

$$$$
