O=C1CC[C@H](NC(NC2CCCC2)=[NH+][C@H]2Cc3ccc(Cl)cc3C2)CN1
     RDKit          3D

 54 57  0  0  1  0  0  0  0  0999 V2000
  124.2003  133.6071  161.3973 O   0  0  0  0  0  0  0  0  0  0  0  0
  125.3457  133.9278  161.1603 C   0  0  0  0  0  0  0  0  0  0  0  0
  126.2893  132.8735  160.6571 C   0  0  0  0  0  0  0  0  0  0  0  0
  127.7363  133.3405  160.8302 C   0  0  0  0  0  0  0  0  0  0  0  0
  127.8566  134.7640  160.2727 C   0  0  2  0  0  0  0  0  0  0  0  0
  127.4645  134.7929  159.2561 H   0  0  0  0  0  0  0  0  0  0  0  0
  129.2632  135.1731  160.2688 N   0  0  0  0  0  0  0  0  0  0  0  0
  130.1857  134.4558  159.5445 C   0  0  0  0  0  0  0  0  0  0  0  0
  129.8011  133.8006  158.3988 N   0  0  0  0  0  0  0  0  0  0  0  0
  130.7843  133.0362  157.6271 C   0  0  0  0  0  0  0  0  0  0  0  0
  130.0956  132.3424  156.4336 C   0  0  0  0  0  0  0  0  0  0  0  0
  130.8159  130.9749  156.3229 C   0  0  0  0  0  0  0  0  0  0  0  0
  131.0416  130.5855  157.8051 C   0  0  0  0  0  0  0  0  0  0  0  0
  131.3858  131.9198  158.4985 C   0  0  0  0  0  0  0  0  0  0  0  0
  131.4250  134.3970  159.9443 N   0  0  0  0  0  0  0  0  0  0  0  0
  132.0759  133.8909  159.4333 H   0  0  0  0  0  0  0  0  0  0  0  0
  131.8348  135.0950  161.1653 C   0  0  1  0  0  0  0  0  0  0  0  0
  131.0080  135.1518  161.8732 H   0  0  0  0  0  0  0  0  0  0  0  0
  133.0591  134.4072  161.8058 C   0  0  0  0  0  0  0  0  0  0  0  0
  133.8862  135.5331  162.3886 C   0  0  0  0  0  0  0  0  0  0  0  0
  134.9006  135.5062  163.3313 C   0  0  0  0  0  0  0  0  0  0  0  0
  135.5193  136.6777  163.7205 C   0  0  0  0  0  0  0  0  0  0  0  0
  135.1325  137.8819  163.1592 C   0  0  0  0  0  0  0  0  0  0  0  0
  135.9133  139.3559  163.6405 Cl  0  0  0  0  0  0  0  0  0  0  0  0
  134.1199  137.9102  162.2188 C   0  0  0  0  0  0  0  0  0  0  0  0
  133.4955  136.7364  161.8318 C   0  0  0  0  0  0  0  0  0  0  0  0
  132.3792  136.5013  160.8368 C   0  0  0  0  0  0  0  0  0  0  0  0
  127.0491  135.7112  161.1611 C   0  0  0  0  0  0  0  0  0  0  0  0
  125.6996  135.1979  161.3600 N   0  0  0  0  0  0  0  0  0  0  0  0
  126.1357  131.9522  161.2190 H   0  0  0  0  0  0  0  0  0  0  0  0
  126.0964  132.6894  159.6002 H   0  0  0  0  0  0  0  0  0  0  0  0
  128.4064  132.6753  160.2855 H   0  0  0  0  0  0  0  0  0  0  0  0
  127.9962  133.3377  161.8887 H   0  0  0  0  0  0  0  0  0  0  0  0
  129.5438  135.9501  160.7773 H   0  0  0  0  0  0  0  0  0  0  0  0
  128.8790  133.8443  158.1012 H   0  0  0  0  0  0  0  0  0  0  0  0
  131.5738  133.6973  157.2697 H   0  0  0  0  0  0  0  0  0  0  0  0
  129.0342  132.1991  156.6364 H   0  0  0  0  0  0  0  0  0  0  0  0
  130.2358  132.9231  155.5220 H   0  0  0  0  0  0  0  0  0  0  0  0
  131.7678  131.0813  155.8024 H   0  0  0  0  0  0  0  0  0  0  0  0
  130.1837  130.2413  155.8227 H   0  0  0  0  0  0  0  0  0  0  0  0
  131.8714  129.8844  157.8933 H   0  0  0  0  0  0  0  0  0  0  0  0
  130.1345  130.1570  158.2313 H   0  0  0  0  0  0  0  0  0  0  0  0
  132.4674  132.0386  158.5635 H   0  0  0  0  0  0  0  0  0  0  0  0
  130.9469  131.9472  159.4959 H   0  0  0  0  0  0  0  0  0  0  0  0
  133.6307  133.8707  161.0485 H   0  0  0  0  0  0  0  0  0  0  0  0
  132.7403  133.7249  162.5939 H   0  0  0  0  0  0  0  0  0  0  0  0
  135.2058  134.5662  163.7668 H   0  0  0  0  0  0  0  0  0  0  0  0
  136.3069  136.6537  164.4590 H   0  0  0  0  0  0  0  0  0  0  0  0
  133.8152  138.8508  161.7841 H   0  0  0  0  0  0  0  0  0  0  0  0
  132.7680  136.5282  159.8189 H   0  0  0  0  0  0  0  0  0  0  0  0
  131.5963  137.2491  160.9632 H   0  0  0  0  0  0  0  0  0  0  0  0
  127.5438  135.8081  162.1276 H   0  0  0  0  0  0  0  0  0  0  0  0
  126.9925  136.6904  160.6858 H   0  0  0  0  0  0  0  0  0  0  0  0
  125.0159  135.8191  161.6561 H   0  0  0  0  0  0  0  0  0  0  0  0
  1  2  2  0
  2 29  1  0
  2  3  1  0
  3  4  1  0
  3 30  1  0
  3 31  1  0
  4  5  1  0
  4 32  1  0
  4 33  1  0
  5  6  1  6
  5  7  1  0
  5 28  1  0
  7 34  1  0
  8  7  1  0
  8  9  1  0
  8 15  2  0
  9 10  1  0
  9 35  1  0
 10 14  1  0
 10 11  1  0
 10 36  1  0
 11 12  1  0
 11 37  1  0
 11 38  1  0
 12 13  1  0
 12 39  1  0
 12 40  1  0
 13 14  1  0
 13 41  1  0
 13 42  1  0
 14 43  1  0
 14 44  1  0
 15 16  1  0
 15 17  1  0
 17 18  1  1
 17 27  1  0
 17 19  1  0
 19 20  1  0
 19 45  1  0
 19 46  1  0
 20 26  2  0
 20 21  1  0
 21 22  2  0
 21 47  1  0
 22 23  1  0
 22 48  1  0
 23 24  1  0
 23 25  2  0
 25 26  1  0
 25 49  1  0
 26 27  1  0
 27 50  1  0
 27 51  1  0
 28 29  1  0
 28 52  1  0
 28 53  1  0
 29 54  1  0
M  CHG  1  15   1
M  END
>  <DOCK_score>  (1) 
-41.334427

>  <SMILES>  (1) 
O=C1CC[C@H](NC(NC2CCCC2)=[NH+][C@H]2Cc3ccc(Cl)cc3C2)CN1

$$$$
