CCc1ccc(-c2c[nH]c(N[C@@H](Cc3ccc(-c4ccccc4)cc3)c3ccnn3C)[nH+]2)cc1
     RDKit          3D

 64 68  0  0  1  0  0  0  0  0999 V2000
  130.2821  129.7119  151.2195 C   0  0  0  0  0  0  0  0  0  0  0  0
  131.4255  129.5078  152.2146 C   0  0  0  0  0  0  0  0  0  0  0  0
  131.1270  130.2621  153.4847 C   0  0  0  0  0  0  0  0  0  0  0  0
  130.3733  131.4206  153.4369 C   0  0  0  0  0  0  0  0  0  0  0  0
  130.0920  132.1124  154.5974 C   0  0  0  0  0  0  0  0  0  0  0  0
  130.5786  131.6478  155.8180 C   0  0  0  0  0  0  0  0  0  0  0  0
  130.2843  132.3900  157.0680 C   0  0  0  0  0  0  0  0  0  0  0  0
  129.6261  131.9032  158.1491 C   0  0  0  0  0  0  0  0  0  0  0  0
  129.5745  132.9173  159.0744 N   0  0  0  0  0  0  0  0  0  0  0  0
  129.1652  132.8733  159.9527 H   0  0  0  0  0  0  0  0  0  0  0  0
  130.2034  133.9950  158.5312 C   0  0  0  0  0  0  0  0  0  0  0  0
  130.3691  135.2253  159.1439 N   0  0  0  0  0  0  0  0  0  0  0  0
  129.8443  135.4482  160.4934 C   0  0  1  0  0  0  0  0  0  0  0  0
  130.3090  134.7452  161.1846 H   0  0  0  0  0  0  0  0  0  0  0  0
  130.1592  136.8795  160.9330 C   0  0  0  0  0  0  0  0  0  0  0  0
  131.5882  136.9569  161.4053 C   0  0  0  0  0  0  0  0  0  0  0  0
  132.5957  137.2570  160.5063 C   0  0  0  0  0  0  0  0  0  0  0  0
  133.9056  137.3340  160.9343 C   0  0  0  0  0  0  0  0  0  0  0  0
  134.2134  137.0984  162.2727 C   0  0  0  0  0  0  0  0  0  0  0  0
  135.6207  137.1738  162.7376 C   0  0  0  0  0  0  0  0  0  0  0  0
  136.0456  136.3924  163.8100 C   0  0  0  0  0  0  0  0  0  0  0  0
  137.3567  136.4630  164.2351 C   0  0  0  0  0  0  0  0  0  0  0  0
  138.2458  137.3152  163.6053 C   0  0  0  0  0  0  0  0  0  0  0  0
  137.8281  138.0970  162.5434 C   0  0  0  0  0  0  0  0  0  0  0  0
  136.5206  138.0305  162.1067 C   0  0  0  0  0  0  0  0  0  0  0  0
  133.1953  136.7913  163.1729 C   0  0  0  0  0  0  0  0  0  0  0  0
  131.8881  136.7222  162.7351 C   0  0  0  0  0  0  0  0  0  0  0  0
  128.3517  135.2399  160.4926 C   0  0  0  0  0  0  0  0  0  0  0  0
  127.4502  135.9309  159.7572 C   0  0  0  0  0  0  0  0  0  0  0  0
  126.1790  135.4253  160.0487 C   0  0  0  0  0  0  0  0  0  0  0  0
  126.3119  134.4706  160.9334 N   0  0  0  0  0  0  0  0  0  0  0  0
  127.6743  134.3349  161.2294 N   0  0  0  0  0  0  0  0  0  0  0  0
  128.2603  133.3794  162.1728 C   0  0  0  0  0  0  0  0  0  0  0  0
  130.6313  133.6743  157.3345 N   0  0  0  0  0  0  0  0  0  0  0  0
  131.1164  134.2620  156.7344 H   0  0  0  0  0  0  0  0  0  0  0  0
  131.3424  130.4826  155.8597 C   0  0  0  0  0  0  0  0  0  0  0  0
  131.6127  129.7958  154.6936 C   0  0  0  0  0  0  0  0  0  0  0  0
  130.1807  130.7738  150.9959 H   0  0  0  0  0  0  0  0  0  0  0  0
  130.4981  129.1662  150.3009 H   0  0  0  0  0  0  0  0  0  0  0  0
  129.3529  129.3413  151.6523 H   0  0  0  0  0  0  0  0  0  0  0  0
  131.5271  128.4452  152.4387 H   0  0  0  0  0  0  0  0  0  0  0  0
  132.3550  129.8778  151.7823 H   0  0  0  0  0  0  0  0  0  0  0  0
  130.0008  131.7823  152.4900 H   0  0  0  0  0  0  0  0  0  0  0  0
  129.4994  133.0146  154.5594 H   0  0  0  0  0  0  0  0  0  0  0  0
  129.2198  130.9089  158.2610 H   0  0  0  0  0  0  0  0  0  0  0  0
  130.8329  135.9398  158.6797 H   0  0  0  0  0  0  0  0  0  0  0  0
  130.0172  137.5576  160.0918 H   0  0  0  0  0  0  0  0  0  0  0  0
  129.4918  137.1648  161.7464 H   0  0  0  0  0  0  0  0  0  0  0  0
  132.3565  137.4353  159.4684 H   0  0  0  0  0  0  0  0  0  0  0  0
  134.6910  137.5721  160.2323 H   0  0  0  0  0  0  0  0  0  0  0  0
  135.3513  135.7298  164.3051 H   0  0  0  0  0  0  0  0  0  0  0  0
  137.6883  135.8547  165.0638 H   0  0  0  0  0  0  0  0  0  0  0  0
  139.2697  137.3706  163.9441 H   0  0  0  0  0  0  0  0  0  0  0  0
  138.5261  138.7609  162.0555 H   0  0  0  0  0  0  0  0  0  0  0  0
  136.1952  138.6417  161.2778 H   0  0  0  0  0  0  0  0  0  0  0  0
  133.4282  136.6083  164.2115 H   0  0  0  0  0  0  0  0  0  0  0  0
  131.0982  136.4839  163.4319 H   0  0  0  0  0  0  0  0  0  0  0  0
  127.6729  136.7299  159.0656 H   0  0  0  0  0  0  0  0  0  0  0  0
  125.2482  135.7667  159.6205 H   0  0  0  0  0  0  0  0  0  0  0  0
  128.3094  133.8306  163.1638 H   0  0  0  0  0  0  0  0  0  0  0  0
  127.6424  132.4822  162.2124 H   0  0  0  0  0  0  0  0  0  0  0  0
  129.2651  133.1140  161.8442 H   0  0  0  0  0  0  0  0  0  0  0  0
  131.7223  130.1181  156.8027 H   0  0  0  0  0  0  0  0  0  0  0  0
  132.2047  128.8930  154.7247 H   0  0  0  0  0  0  0  0  0  0  0  0
  1  2  1  0
  1 38  1  0
  1 39  1  0
  1 40  1  0
  2  3  1  0
  2 41  1  0
  2 42  1  0
  3 37  2  0
  3  4  1  0
  4  5  2  0
  4 43  1  0
  5  6  1  0
  5 44  1  0
  6  7  1  0
  6 36  2  0
  7 34  1  0
  7  8  2  0
  8  9  1  0
  8 45  1  0
  9 10  1  0
  9 11  1  0
 11 12  1  0
 11 34  2  0
 12 13  1  0
 12 46  1  0
 13 14  1  1
 13 15  1  0
 13 28  1  0
 15 16  1  0
 15 47  1  0
 15 48  1  0
 16 27  1  0
 16 17  2  0
 17 18  1  0
 17 49  1  0
 18 19  2  0
 18 50  1  0
 19 20  1  0
 19 26  1  0
 20 25  1  0
 20 21  2  0
 21 22  1  0
 21 51  1  0
 22 23  2  0
 22 52  1  0
 23 24  1  0
 23 53  1  0
 24 25  2  0
 24 54  1  0
 25 55  1  0
 26 27  2  0
 26 56  1  0
 27 57  1  0
 28 32  1  0
 28 29  2  0
 29 30  1  0
 29 58  1  0
 30 31  2  0
 30 59  1  0
 31 32  1  0
 32 33  1  0
 33 60  1  0
 33 61  1  0
 33 62  1  0
 34 35  1  0
 36 37  1  0
 36 63  1  0
 37 64  1  0
M  CHG  1  34   1
M  END
>  <DOCK_score>  (1) 
-66.316383

>  <SMILES>  (1) 
CCc1ccc(-c2c[nH]c(N[C@@H](Cc3ccc(-c4ccccc4)cc3)c3ccnn3C)[nH+]2)cc1

$$$$
