Nc1ccc(-c2c[nH]c(Nc3ccc(Nc4ccccc4F)cc3)[nH+]2)cc1
     RDKit          3D

 46 49  0  0  1  0  0  0  0  0999 V2000
  131.3255  129.1260  151.4772 N   0  0  0  0  0  0  0  0  0  0  0  0
  131.0499  129.8517  152.6387 C   0  0  0  0  0  0  0  0  0  0  0  0
  130.1436  130.9047  152.6005 C   0  0  0  0  0  0  0  0  0  0  0  0
  129.8701  131.6223  153.7457 C   0  0  0  0  0  0  0  0  0  0  0  0
  130.5033  131.2908  154.9425 C   0  0  0  0  0  0  0  0  0  0  0  0
  130.2106  132.0614  156.1760 C   0  0  0  0  0  0  0  0  0  0  0  0
  129.6975  131.5605  157.3270 C   0  0  0  0  0  0  0  0  0  0  0  0
  129.5935  132.6106  158.2075 N   0  0  0  0  0  0  0  0  0  0  0  0
  129.2625  132.5665  159.1181 H   0  0  0  0  0  0  0  0  0  0  0  0
  130.0381  133.7247  157.5643 C   0  0  0  0  0  0  0  0  0  0  0  0
  130.0947  134.9991  158.1037 N   0  0  0  0  0  0  0  0  0  0  0  0
  129.1698  135.3876  159.0809 C   0  0  0  0  0  0  0  0  0  0  0  0
  129.5283  136.3222  160.0436 C   0  0  0  0  0  0  0  0  0  0  0  0
  128.6167  136.7049  161.0072 C   0  0  0  0  0  0  0  0  0  0  0  0
  127.3409  136.1557  161.0134 C   0  0  0  0  0  0  0  0  0  0  0  0
  126.4167  136.5437  161.9902 N   0  0  0  0  0  0  0  0  0  0  0  0
  126.7022  136.3381  163.3438 C   0  0  0  0  0  0  0  0  0  0  0  0
  126.1903  137.2025  164.3022 C   0  0  0  0  0  0  0  0  0  0  0  0
  126.4694  136.9936  165.6389 C   0  0  0  0  0  0  0  0  0  0  0  0
  127.2675  135.9310  166.0231 C   0  0  0  0  0  0  0  0  0  0  0  0
  127.7842  135.0708  165.0721 C   0  0  0  0  0  0  0  0  0  0  0  0
  127.5044  135.2703  163.7328 C   0  0  0  0  0  0  0  0  0  0  0  0
  128.0091  134.4294  162.8036 F   0  0  0  0  0  0  0  0  0  0  0  0
  126.9843  135.2171  160.0536 C   0  0  0  0  0  0  0  0  0  0  0  0
  127.8942  134.8387  159.0866 C   0  0  0  0  0  0  0  0  0  0  0  0
  130.4092  133.3914  156.3519 N   0  0  0  0  0  0  0  0  0  0  0  0
  130.7684  133.9992  155.6867 H   0  0  0  0  0  0  0  0  0  0  0  0
  131.4163  130.2379  154.9773 C   0  0  0  0  0  0  0  0  0  0  0  0
  131.6821  129.5191  153.8310 C   0  0  0  0  0  0  0  0  0  0  0  0
  130.8843  129.3573  150.6448 H   0  0  0  0  0  0  0  0  0  0  0  0
  131.9578  128.3910  151.5030 H   0  0  0  0  0  0  0  0  0  0  0  0
  129.6535  131.1613  151.6728 H   0  0  0  0  0  0  0  0  0  0  0  0
  129.1655  132.4403  153.7155 H   0  0  0  0  0  0  0  0  0  0  0  0
  129.4267  130.5323  157.5168 H   0  0  0  0  0  0  0  0  0  0  0  0
  130.7751  135.6225  157.8047 H   0  0  0  0  0  0  0  0  0  0  0  0
  130.5203  136.7493  160.0388 H   0  0  0  0  0  0  0  0  0  0  0  0
  128.8953  137.4317  161.7560 H   0  0  0  0  0  0  0  0  0  0  0  0
  125.5765  136.9513  161.7283 H   0  0  0  0  0  0  0  0  0  0  0  0
  125.5711  138.0353  164.0033 H   0  0  0  0  0  0  0  0  0  0  0  0
  126.0673  137.6631  166.3848 H   0  0  0  0  0  0  0  0  0  0  0  0
  127.4865  135.7733  167.0688 H   0  0  0  0  0  0  0  0  0  0  0  0
  128.4065  134.2421  165.3758 H   0  0  0  0  0  0  0  0  0  0  0  0
  125.9937  134.7867  160.0611 H   0  0  0  0  0  0  0  0  0  0  0  0
  127.6152  134.1126  158.3375 H   0  0  0  0  0  0  0  0  0  0  0  0
  131.9115  129.9825  155.9023 H   0  0  0  0  0  0  0  0  0  0  0  0
  132.3857  128.7002  153.8584 H   0  0  0  0  0  0  0  0  0  0  0  0
  1  2  1  0
  1 30  1  0
  1 31  1  0
  2 29  2  0
  2  3  1  0
  3  4  2  0
  3 32  1  0
  4  5  1  0
  4 33  1  0
  5  6  1  0
  5 28  2  0
  6 26  1  0
  6  7  2  0
  7  8  1  0
  7 34  1  0
  8  9  1  0
  8 10  1  0
 10 11  1  0
 10 26  2  0
 11 12  1  0
 11 35  1  0
 12 25  1  0
 12 13  2  0
 13 14  1  0
 13 36  1  0
 14 15  2  0
 14 37  1  0
 15 16  1  0
 15 24  1  0
 16 17  1  0
 16 38  1  0
 17 22  1  0
 17 18  2  0
 18 19  1  0
 18 39  1  0
 19 20  2  0
 19 40  1  0
 20 21  1  0
 20 41  1  0
 21 22  2  0
 21 42  1  0
 22 23  1  0
 24 25  2  0
 24 43  1  0
 25 44  1  0
 26 27  1  0
 28 29  1  0
 28 45  1  0
 29 46  1  0
M  CHG  1  26   1
M  END
>  <DOCK_score>  (1) 
-56.975803

>  <SMILES>  (1) 
Nc1ccc(-c2c[nH]c(Nc3ccc(Nc4ccccc4F)cc3)[nH+]2)cc1

$$$$
