Nc1ccc(-c2c[nH]c(N[C@@H](c3ccc(OC4CC=CC4)cc3)c3ccc(O)c4ccccc34)[nH+]2)cc1
     RDKit          3D

 66 71  0  0  1  0  0  0  0  0999 V2000
  131.7133  129.8421  151.8862 N   0  0  0  0  0  0  0  0  0  0  0  0
  131.4174  130.4524  153.1074 C   0  0  0  0  0  0  0  0  0  0  0  0
  130.9247  131.7518  153.1323 C   0  0  0  0  0  0  0  0  0  0  0  0
  130.6318  132.3563  154.3365 C   0  0  0  0  0  0  0  0  0  0  0  0
  130.8303  131.6631  155.5296 C   0  0  0  0  0  0  0  0  0  0  0  0
  130.5161  132.3113  156.8265 C   0  0  0  0  0  0  0  0  0  0  0  0
  130.1030  131.6815  157.9539 C   0  0  0  0  0  0  0  0  0  0  0  0
  129.9294  132.6522  158.9120 N   0  0  0  0  0  0  0  0  0  0  0  0
  129.6382  132.5113  159.8264 H   0  0  0  0  0  0  0  0  0  0  0  0
  130.2420  133.8467  158.3404 C   0  0  0  0  0  0  0  0  0  0  0  0
  130.1977  135.0785  158.9708 N   0  0  0  0  0  0  0  0  0  0  0  0
  129.7865  135.1688  160.3740 C   0  0  1  0  0  0  0  0  0  0  0  0
  130.2148  134.3362  160.9324 H   0  0  0  0  0  0  0  0  0  0  0  0
  130.2749  136.4694  160.9580 C   0  0  0  0  0  0  0  0  0  0  0  0
  129.4785  137.5976  160.8922 C   0  0  0  0  0  0  0  0  0  0  0  0
  129.9216  138.7896  161.4316 C   0  0  0  0  0  0  0  0  0  0  0  0
  131.1711  138.8570  162.0301 C   0  0  0  0  0  0  0  0  0  0  0  0
  131.6117  140.0298  162.5567 O   0  0  0  0  0  0  0  0  0  0  0  0
  131.9149  140.0406  163.9532 C   0  0  0  0  0  0  0  0  0  0  0  0
  130.6322  139.8751  164.8010 C   0  0  0  0  0  0  0  0  0  0  0  0
  130.8450  140.7715  165.9985 C   0  0  0  0  0  0  0  0  0  0  0  0
  131.8099  141.6234  165.7824 C   0  0  0  0  0  0  0  0  0  0  0  0
  132.4017  141.4372  164.4047 C   0  0  0  0  0  0  0  0  0  0  0  0
  131.9710  137.7245  162.0899 C   0  0  0  0  0  0  0  0  0  0  0  0
  131.5212  136.5337  161.5535 C   0  0  0  0  0  0  0  0  0  0  0  0
  128.2832  135.1120  160.4618 C   0  0  0  0  0  0  0  0  0  0  0  0
  127.5368  134.9934  159.3290 C   0  0  0  0  0  0  0  0  0  0  0  0
  126.1472  134.9378  159.3871 C   0  0  0  0  0  0  0  0  0  0  0  0
  125.4914  135.0018  160.5844 C   0  0  0  0  0  0  0  0  0  0  0  0
  124.1352  134.9414  160.6251 O   0  0  0  0  0  0  0  0  0  0  0  0
  126.2323  135.1251  161.7772 C   0  0  0  0  0  0  0  0  0  0  0  0
  125.5962  135.1945  163.0270 C   0  0  0  0  0  0  0  0  0  0  0  0
  126.3444  135.3130  164.1580 C   0  0  0  0  0  0  0  0  0  0  0  0
  127.7355  135.3676  164.0954 C   0  0  0  0  0  0  0  0  0  0  0  0
  128.3861  135.3035  162.9017 C   0  0  0  0  0  0  0  0  0  0  0  0
  127.6467  135.1805  161.7126 C   0  0  0  0  0  0  0  0  0  0  0  0
  130.5867  133.6397  157.0927 N   0  0  0  0  0  0  0  0  0  0  0  0
  130.8520  134.3264  156.4613 H   0  0  0  0  0  0  0  0  0  0  0  0
  131.3301  130.3620  155.5024 C   0  0  0  0  0  0  0  0  0  0  0  0
  131.6156  129.7592  154.2955 C   0  0  0  0  0  0  0  0  0  0  0  0
  131.5749  130.3251  151.0564 H   0  0  0  0  0  0  0  0  0  0  0  0
  132.0572  128.9353  151.8679 H   0  0  0  0  0  0  0  0  0  0  0  0
  130.7713  132.2885  152.2077 H   0  0  0  0  0  0  0  0  0  0  0  0
  130.2486  133.3659  154.3555 H   0  0  0  0  0  0  0  0  0  0  0  0
  129.9410  130.6208  158.0758 H   0  0  0  0  0  0  0  0  0  0  0  0
  130.4389  135.8818  158.4835 H   0  0  0  0  0  0  0  0  0  0  0  0
  128.5076  137.5460  160.4223 H   0  0  0  0  0  0  0  0  0  0  0  0
  129.2972  139.6695  161.3844 H   0  0  0  0  0  0  0  0  0  0  0  0
  132.6484  139.2726  164.1982 H   0  0  0  0  0  0  0  0  0  0  0  0
  129.7586  140.1986  164.2349 H   0  0  0  0  0  0  0  0  0  0  0  0
  130.5177  138.8385  165.1181 H   0  0  0  0  0  0  0  0  0  0  0  0
  130.2739  140.7145  166.9135 H   0  0  0  0  0  0  0  0  0  0  0  0
  132.1421  142.3638  166.4950 H   0  0  0  0  0  0  0  0  0  0  0  0
  133.4903  141.4627  164.4522 H   0  0  0  0  0  0  0  0  0  0  0  0
  132.0323  142.2059  163.7257 H   0  0  0  0  0  0  0  0  0  0  0  0
  132.9442  137.7742  162.5556 H   0  0  0  0  0  0  0  0  0  0  0  0
  132.1432  135.6521  161.5997 H   0  0  0  0  0  0  0  0  0  0  0  0
  128.0310  134.9411  158.3700 H   0  0  0  0  0  0  0  0  0  0  0  0
  125.5794  134.8430  158.4733 H   0  0  0  0  0  0  0  0  0  0  0  0
  123.7192  134.8531  159.7565 H   0  0  0  0  0  0  0  0  0  0  0  0
  124.5189  135.1534  163.0907 H   0  0  0  0  0  0  0  0  0  0  0  0
  125.8526  135.3661  165.1182 H   0  0  0  0  0  0  0  0  0  0  0  0
  128.3059  135.4616  165.0077 H   0  0  0  0  0  0  0  0  0  0  0  0
  129.4647  135.3465  162.8682 H   0  0  0  0  0  0  0  0  0  0  0  0
  131.4889  129.8247  156.4257 H   0  0  0  0  0  0  0  0  0  0  0  0
  131.9980  128.7495  154.2738 H   0  0  0  0  0  0  0  0  0  0  0  0
  1  2  1  0
  1 41  1  0
  1 42  1  0
  2 40  2  0
  2  3  1  0
  3  4  2  0
  3 43  1  0
  4  5  1  0
  4 44  1  0
  5  6  1  0
  5 39  2  0
  6 37  1  0
  6  7  2  0
  7  8  1  0
  7 45  1  0
  8  9  1  0
  8 10  1  0
 10 11  1  0
 10 37  2  0
 11 12  1  0
 11 46  1  0
 12 13  1  1
 12 14  1  0
 12 26  1  0
 14 25  1  0
 14 15  2  0
 15 16  1  0
 15 47  1  0
 16 17  2  0
 16 48  1  0
 17 18  1  0
 17 24  1  0
 18 19  1  0
 19 23  1  0
 19 20  1  0
 19 49  1  0
 20 21  1  0
 20 50  1  0
 20 51  1  0
 21 22  2  0
 21 52  1  0
 22 23  1  0
 22 53  1  0
 23 54  1  0
 23 55  1  0
 24 25  2  0
 24 56  1  0
 25 57  1  0
 26 36  1  0
 26 27  2  0
 27 28  1  0
 27 58  1  0
 28 29  2  0
 28 59  1  0
 29 30  1  0
 29 31  1  0
 30 60  1  0
 31 36  2  0
 31 32  1  0
 32 33  2  0
 32 61  1  0
 33 34  1  0
 33 62  1  0
 34 35  2  0
 34 63  1  0
 35 36  1  0
 35 64  1  0
 37 38  1  0
 39 40  1  0
 39 65  1  0
 40 66  1  0
M  CHG  1  37   1
M  END
>  <DOCK_score>  (1) 
-58.393196

>  <SMILES>  (1) 
Nc1ccc(-c2c[nH]c(N[C@@H](c3ccc(OC4CC=CC4)cc3)c3ccc(O)c4ccccc34)[nH+]2)cc1

$$$$
