O=C1C[C@](Nc2[nH]cc(-c3ccc(-c4ccccc4)cc3)[nH+]2)(c2ccccc2)CN1
     RDKit          3D

 53 57  0  0  1  0  0  0  0  0999 V2000
  134.3790  137.7858  162.2810 O   0  0  0  0  0  0  0  0  0  0  0  0
  133.5452  136.9138  162.1563 C   0  0  0  0  0  0  0  0  0  0  0  0
  132.0979  137.1462  161.7800 C   0  0  0  0  0  0  0  0  0  0  0  0
  131.5897  135.7503  161.3507 C   0  0  2  0  0  0  0  0  0  0  0  0
  131.7205  135.5670  159.9032 N   0  0  0  0  0  0  0  0  0  0  0  0
  131.3193  134.3790  159.3168 C   0  0  0  0  0  0  0  0  0  0  0  0
  130.7957  133.3081  159.9738 N   0  0  0  0  0  0  0  0  0  0  0  0
  130.6380  133.2407  160.9285 H   0  0  0  0  0  0  0  0  0  0  0  0
  130.5285  132.3418  159.0350 C   0  0  0  0  0  0  0  0  0  0  0  0
  130.9048  132.8459  157.8331 C   0  0  0  0  0  0  0  0  0  0  0  0
  130.8070  132.1522  156.5266 C   0  0  0  0  0  0  0  0  0  0  0  0
  130.0325  132.6984  155.5031 C   0  0  0  0  0  0  0  0  0  0  0  0
  129.9471  132.0571  154.2870 C   0  0  0  0  0  0  0  0  0  0  0  0
  130.6247  130.8550  154.0835 C   0  0  0  0  0  0  0  0  0  0  0  0
  130.5274  130.1610  152.7765 C   0  0  0  0  0  0  0  0  0  0  0  0
  130.6311  128.7730  152.7117 C   0  0  0  0  0  0  0  0  0  0  0  0
  130.5345  128.1326  151.4931 C   0  0  0  0  0  0  0  0  0  0  0  0
  130.3461  128.8658  150.3362 C   0  0  0  0  0  0  0  0  0  0  0  0
  130.2472  130.2451  150.3933 C   0  0  0  0  0  0  0  0  0  0  0  0
  130.3371  130.8960  151.6069 C   0  0  0  0  0  0  0  0  0  0  0  0
  131.3940  130.3059  155.1087 C   0  0  0  0  0  0  0  0  0  0  0  0
  131.4850  130.9503  156.3226 C   0  0  0  0  0  0  0  0  0  0  0  0
  131.3862  134.0979  158.0385 N   0  0  0  0  0  0  0  0  0  0  0  0
  131.7253  134.6902  157.3493 H   0  0  0  0  0  0  0  0  0  0  0  0
  130.1648  135.5360  161.7920 C   0  0  0  0  0  0  0  0  0  0  0  0
  129.8423  135.5855  163.1354 C   0  0  0  0  0  0  0  0  0  0  0  0
  128.5365  135.3822  163.5406 C   0  0  0  0  0  0  0  0  0  0  0  0
  127.5527  135.1310  162.6026 C   0  0  0  0  0  0  0  0  0  0  0  0
  127.8751  135.0816  161.2592 C   0  0  0  0  0  0  0  0  0  0  0  0
  129.1811  135.2843  160.8539 C   0  0  0  0  0  0  0  0  0  0  0  0
  132.5520  134.8147  162.1158 C   0  0  0  0  0  0  0  0  0  0  0  0
  133.7724  135.6006  162.3323 N   0  0  0  0  0  0  0  0  0  0  0  0
  132.0270  137.8498  160.9505 H   0  0  0  0  0  0  0  0  0  0  0  0
  131.5342  137.5098  162.6391 H   0  0  0  0  0  0  0  0  0  0  0  0
  132.0882  136.2782  159.3555 H   0  0  0  0  0  0  0  0  0  0  0  0
  130.1046  131.3657  159.2191 H   0  0  0  0  0  0  0  0  0  0  0  0
  129.5036  133.6264  155.6625 H   0  0  0  0  0  0  0  0  0  0  0  0
  129.3515  132.4826  153.4929 H   0  0  0  0  0  0  0  0  0  0  0  0
  130.7833  128.1993  153.6140 H   0  0  0  0  0  0  0  0  0  0  0  0
  130.6108  127.0564  151.4423 H   0  0  0  0  0  0  0  0  0  0  0  0
  130.2758  128.3607  149.3841 H   0  0  0  0  0  0  0  0  0  0  0  0
  130.0998  130.8131  149.4867 H   0  0  0  0  0  0  0  0  0  0  0  0
  130.2607  131.9725  151.6505 H   0  0  0  0  0  0  0  0  0  0  0  0
  131.9190  129.3753  154.9506 H   0  0  0  0  0  0  0  0  0  0  0  0
  132.0815  130.5252  157.1162 H   0  0  0  0  0  0  0  0  0  0  0  0
  130.6108  135.7821  163.8682 H   0  0  0  0  0  0  0  0  0  0  0  0
  128.2847  135.4207  164.5902 H   0  0  0  0  0  0  0  0  0  0  0  0
  126.5323  134.9729  162.9192 H   0  0  0  0  0  0  0  0  0  0  0  0
  127.1066  134.8851  160.5262 H   0  0  0  0  0  0  0  0  0  0  0  0
  129.4329  135.2457  159.8043 H   0  0  0  0  0  0  0  0  0  0  0  0
  132.1156  134.5246  163.0714 H   0  0  0  0  0  0  0  0  0  0  0  0
  132.7725  133.9301  161.5182 H   0  0  0  0  0  0  0  0  0  0  0  0
  134.6324  135.2212  162.5713 H   0  0  0  0  0  0  0  0  0  0  0  0
  1  2  2  0
  2 32  1  0
  2  3  1  0
  3  4  1  0
  3 33  1  0
  3 34  1  0
  4  5  1  6
  4 25  1  0
  4 31  1  0
  5 35  1  0
  6  5  1  0
  6 23  2  0
  6  7  1  0
  7  8  1  0
  7  9  1  0
  9 10  2  0
  9 36  1  0
 10 11  1  0
 10 23  1  0
 11 22  1  0
 11 12  2  0
 12 13  1  0
 12 37  1  0
 13 14  2  0
 13 38  1  0
 14 15  1  0
 14 21  1  0
 15 20  1  0
 15 16  2  0
 16 17  1  0
 16 39  1  0
 17 18  2  0
 17 40  1  0
 18 19  1  0
 18 41  1  0
 19 20  2  0
 19 42  1  0
 20 43  1  0
 21 22  2  0
 21 44  1  0
 22 45  1  0
 23 24  1  0
 25 30  1  0
 25 26  2  0
 26 27  1  0
 26 46  1  0
 27 28  2  0
 27 47  1  0
 28 29  1  0
 28 48  1  0
 29 30  2  0
 29 49  1  0
 30 50  1  0
 31 32  1  0
 31 51  1  0
 31 52  1  0
 32 53  1  0
M  CHG  1  23   1
M  END
>  <DOCK_score>  (1) 
-56.992641

>  <SMILES>  (1) 
O=C1C[C@](Nc2[nH]cc(-c3ccc(-c4ccccc4)cc3)[nH+]2)(c2ccccc2)CN1

$$$$
