Cn1nccc1[C@H](Cc1ccccn1)Nc1[nH]cc(-c2cccnc2)[nH+]1
     RDKit          3D

 46 49  0  0  1  0  0  0  0  0999 V2000
  128.0773  136.1905  158.4446 C   0  0  0  0  0  0  0  0  0  0  0  0
  127.6659  135.8940  159.8190 N   0  0  0  0  0  0  0  0  0  0  0  0
  126.3605  135.6206  160.2476 N   0  0  0  0  0  0  0  0  0  0  0  0
  126.3906  135.4057  161.5378 C   0  0  0  0  0  0  0  0  0  0  0  0
  127.7147  135.5302  161.9708 C   0  0  0  0  0  0  0  0  0  0  0  0
  128.4774  135.8355  160.8955 C   0  0  0  0  0  0  0  0  0  0  0  0
  129.9672  136.0629  160.8987 C   0  0  2  0  0  0  0  0  0  0  0  0
  130.4233  135.4709  161.6921 H   0  0  0  0  0  0  0  0  0  0  0  0
  130.2561  137.5461  161.1382 C   0  0  0  0  0  0  0  0  0  0  0  0
  131.7459  137.7735  161.1414 C   0  0  0  0  0  0  0  0  0  0  0  0
  132.2799  138.7929  161.9072 C   0  0  0  0  0  0  0  0  0  0  0  0
  133.6520  138.9906  161.9064 C   0  0  0  0  0  0  0  0  0  0  0  0
  134.4383  138.1584  161.1243 C   0  0  0  0  0  0  0  0  0  0  0  0
  133.8335  137.1599  160.3849 C   0  0  0  0  0  0  0  0  0  0  0  0
  132.5249  136.9978  160.4133 N   0  0  0  0  0  0  0  0  0  0  0  0
  130.5254  135.6592  159.6057 N   0  0  0  0  0  0  0  0  0  0  0  0
  130.3875  134.3525  159.1698 C   0  0  0  0  0  0  0  0  0  0  0  0
  129.7632  133.3520  159.8492 N   0  0  0  0  0  0  0  0  0  0  0  0
  129.3386  133.4254  160.7183 H   0  0  0  0  0  0  0  0  0  0  0  0
  129.8429  132.2195  159.0756 C   0  0  0  0  0  0  0  0  0  0  0  0
  130.5204  132.5581  157.9508 C   0  0  0  0  0  0  0  0  0  0  0  0
  130.8522  131.6509  156.8251 C   0  0  0  0  0  0  0  0  0  0  0  0
  130.9610  132.1457  155.5222 C   0  0  0  0  0  0  0  0  0  0  0  0
  131.2785  131.2593  154.5078 C   0  0  0  0  0  0  0  0  0  0  0  0
  131.4644  129.9225  154.8110 C   0  0  0  0  0  0  0  0  0  0  0  0
  131.3497  129.4837  156.0494 N   0  0  0  0  0  0  0  0  0  0  0  0
  131.0547  130.2905  157.0483 C   0  0  0  0  0  0  0  0  0  0  0  0
  130.8414  133.8735  158.0374 N   0  0  0  0  0  0  0  0  0  0  0  0
  131.3286  134.3788  157.3679 H   0  0  0  0  0  0  0  0  0  0  0  0
  128.3330  135.2623  157.9335 H   0  0  0  0  0  0  0  0  0  0  0  0
  127.2589  136.6816  157.9182 H   0  0  0  0  0  0  0  0  0  0  0  0
  128.9464  136.8483  158.4594 H   0  0  0  0  0  0  0  0  0  0  0  0
  125.5403  135.1692  162.1604 H   0  0  0  0  0  0  0  0  0  0  0  0
  128.0661  135.4067  162.9846 H   0  0  0  0  0  0  0  0  0  0  0  0
  129.8407  137.8465  162.1001 H   0  0  0  0  0  0  0  0  0  0  0  0
  129.8000  138.1380  160.3445 H   0  0  0  0  0  0  0  0  0  0  0  0
  131.6365  139.4251  162.5011 H   0  0  0  0  0  0  0  0  0  0  0  0
  134.0975  139.7769  162.4979 H   0  0  0  0  0  0  0  0  0  0  0  0
  135.5104  138.2860  161.0969 H   0  0  0  0  0  0  0  0  0  0  0  0
  134.4393  136.5048  159.7764 H   0  0  0  0  0  0  0  0  0  0  0  0
  130.9917  136.3075  159.0551 H   0  0  0  0  0  0  0  0  0  0  0  0
  129.4458  131.2450  159.3188 H   0  0  0  0  0  0  0  0  0  0  0  0
  130.8057  133.1939  155.3132 H   0  0  0  0  0  0  0  0  0  0  0  0
  131.3754  131.6067  153.4899 H   0  0  0  0  0  0  0  0  0  0  0  0
  131.7079  129.2274  154.0212 H   0  0  0  0  0  0  0  0  0  0  0  0
  130.9692  129.8937  158.0492 H   0  0  0  0  0  0  0  0  0  0  0  0
  1  2  1  0
  1 30  1  0
  1 31  1  0
  1 32  1  0
  2  6  1  0
  2  3  1  0
  3  4  2  0
  4  5  1  0
  4 33  1  0
  5  6  2  0
  5 34  1  0
  6  7  1  0
  7  8  1  1
  7  9  1  0
  7 16  1  0
  9 10  1  0
  9 35  1  0
  9 36  1  0
 10 15  1  0
 10 11  2  0
 11 12  1  0
 11 37  1  0
 12 13  2  0
 12 38  1  0
 13 14  1  0
 13 39  1  0
 14 15  2  0
 14 40  1  0
 16 41  1  0
 17 16  1  0
 17 28  2  0
 17 18  1  0
 18 19  1  0
 18 20  1  0
 20 21  2  0
 20 42  1  0
 21 22  1  0
 21 28  1  0
 22 27  1  0
 22 23  2  0
 23 24  1  0
 23 43  1  0
 24 25  2  0
 24 44  1  0
 25 26  1  0
 25 45  1  0
 26 27  2  0
 27 46  1  0
 28 29  1  0
M  CHG  1  28   1
M  END
>  <DOCK_score>  (1) 
-54.752678

>  <SMILES>  (1) 
Cn1nccc1[C@H](Cc1ccccn1)Nc1[nH]cc(-c2cccnc2)[nH+]1

$$$$
