Oc1ccc(-c2ccc(-c3c[nH]c(N[C@@H](Cc4ccccc4)c4ccc(Cl)cc4)[nH+]3)cc2)cc1
     RDKit          3D

 59 63  0  0  1  0  0  0  0  0999 V2000
  130.4837  127.9977  150.3875 O   0  0  0  0  0  0  0  0  0  0  0  0
  130.4934  128.7493  151.5195 C   0  0  0  0  0  0  0  0  0  0  0  0
  131.3179  128.3953  152.5789 C   0  0  0  0  0  0  0  0  0  0  0  0
  131.3294  129.1554  153.7294 C   0  0  0  0  0  0  0  0  0  0  0  0
  130.5121  130.2806  153.8280 C   0  0  0  0  0  0  0  0  0  0  0  0
  130.5217  131.1003  155.0637 C   0  0  0  0  0  0  0  0  0  0  0  0
  130.2563  132.4678  154.9957 C   0  0  0  0  0  0  0  0  0  0  0  0
  130.2656  133.2289  156.1435 C   0  0  0  0  0  0  0  0  0  0  0  0
  130.5403  132.6321  157.3740 C   0  0  0  0  0  0  0  0  0  0  0  0
  130.5502  133.4514  158.6095 C   0  0  0  0  0  0  0  0  0  0  0  0
  130.2284  133.0214  159.8554 C   0  0  0  0  0  0  0  0  0  0  0  0
  130.3717  134.0970  160.6975 N   0  0  0  0  0  0  0  0  0  0  0  0
  130.2135  134.1025  161.6545 H   0  0  0  0  0  0  0  0  0  0  0  0
  130.7772  135.1537  159.9417 C   0  0  0  0  0  0  0  0  0  0  0  0
  131.0351  136.4298  160.4123 N   0  0  0  0  0  0  0  0  0  0  0  0
  130.8759  136.7312  161.8370 C   0  0  1  0  0  0  0  0  0  0  0  0
  131.5431  136.0959  162.4197 H   0  0  0  0  0  0  0  0  0  0  0  0
  131.2212  138.2002  162.0892 C   0  0  0  0  0  0  0  0  0  0  0  0
  132.6476  138.4587  161.6776 C   0  0  0  0  0  0  0  0  0  0  0  0
  133.0187  139.7087  161.2184 C   0  0  0  0  0  0  0  0  0  0  0  0
  134.3272  139.9458  160.8407 C   0  0  0  0  0  0  0  0  0  0  0  0
  135.2648  138.9333  160.9233 C   0  0  0  0  0  0  0  0  0  0  0  0
  134.8926  137.6821  161.3779 C   0  0  0  0  0  0  0  0  0  0  0  0
  133.5851  137.4462  161.7597 C   0  0  0  0  0  0  0  0  0  0  0  0
  129.4494  136.4726  162.2488 C   0  0  0  0  0  0  0  0  0  0  0  0
  129.1652  136.0722  163.5410 C   0  0  0  0  0  0  0  0  0  0  0  0
  127.8566  135.8404  163.9208 C   0  0  0  0  0  0  0  0  0  0  0  0
  126.8322  135.9982  163.0043 C   0  0  0  0  0  0  0  0  0  0  0  0
  125.1891  135.6999  163.4785 Cl  0  0  0  0  0  0  0  0  0  0  0  0
  127.1180  136.3935  161.7096 C   0  0  0  0  0  0  0  0  0  0  0  0
  128.4264  136.6306  161.3326 C   0  0  0  0  0  0  0  0  0  0  0  0
  130.8778  134.7655  158.6939 N   0  0  0  0  0  0  0  0  0  0  0  0
  131.1455  135.3274  157.9499 H   0  0  0  0  0  0  0  0  0  0  0  0
  130.8111  131.2654  157.4411 C   0  0  0  0  0  0  0  0  0  0  0  0
  130.7962  130.5033  156.2939 C   0  0  0  0  0  0  0  0  0  0  0  0
  129.6819  130.6308  152.7640 C   0  0  0  0  0  0  0  0  0  0  0  0
  129.6784  129.8693  151.6143 C   0  0  0  0  0  0  0  0  0  0  0  0
  131.0828  127.2392  150.4138 H   0  0  0  0  0  0  0  0  0  0  0  0
  131.9507  127.5235  152.5020 H   0  0  0  0  0  0  0  0  0  0  0  0
  131.9704  128.8793  154.5534 H   0  0  0  0  0  0  0  0  0  0  0  0
  130.0442  132.9300  154.0429 H   0  0  0  0  0  0  0  0  0  0  0  0
  130.0599  134.2879  156.0909 H   0  0  0  0  0  0  0  0  0  0  0  0
  129.9185  132.0245  160.1319 H   0  0  0  0  0  0  0  0  0  0  0  0
  131.3213  137.1244  159.7986 H   0  0  0  0  0  0  0  0  0  0  0  0
  131.1027  138.4244  163.1494 H   0  0  0  0  0  0  0  0  0  0  0  0
  130.5540  138.8354  161.5067 H   0  0  0  0  0  0  0  0  0  0  0  0
  132.2863  140.4998  161.1541 H   0  0  0  0  0  0  0  0  0  0  0  0
  134.6170  140.9222  160.4815 H   0  0  0  0  0  0  0  0  0  0  0  0
  136.2870  139.1187  160.6281 H   0  0  0  0  0  0  0  0  0  0  0  0
  135.6241  136.8898  161.4383 H   0  0  0  0  0  0  0  0  0  0  0  0
  133.2953  136.4697  162.1188 H   0  0  0  0  0  0  0  0  0  0  0  0
  129.9653  135.9448  164.2551 H   0  0  0  0  0  0  0  0  0  0  0  0
  127.6342  135.5318  164.9316 H   0  0  0  0  0  0  0  0  0  0  0  0
  126.3189  136.5166  160.9936 H   0  0  0  0  0  0  0  0  0  0  0  0
  128.6495  136.9395  160.3220 H   0  0  0  0  0  0  0  0  0  0  0  0
  131.0281  130.8040  158.3932 H   0  0  0  0  0  0  0  0  0  0  0  0
  131.0015  129.4442  156.3465 H   0  0  0  0  0  0  0  0  0  0  0  0
  129.0445  131.4996  152.8387 H   0  0  0  0  0  0  0  0  0  0  0  0
  129.0382  130.1420  150.7885 H   0  0  0  0  0  0  0  0  0  0  0  0
  1  2  1  0
  1 38  1  0
  2 37  2  0
  2  3  1  0
  3  4  2  0
  3 39  1  0
  4  5  1  0
  4 40  1  0
  5  6  1  0
  5 36  2  0
  6 35  1  0
  6  7  2  0
  7  8  1  0
  7 41  1  0
  8  9  2  0
  8 42  1  0
  9 10  1  0
  9 34  1  0
 10 32  1  0
 10 11  2  0
 11 12  1  0
 11 43  1  0
 12 13  1  0
 12 14  1  0
 14 15  1  0
 14 32  2  0
 15 16  1  0
 15 44  1  0
 16 17  1  1
 16 18  1  0
 16 25  1  0
 18 19  1  0
 18 45  1  0
 18 46  1  0
 19 24  1  0
 19 20  2  0
 20 21  1  0
 20 47  1  0
 21 22  2  0
 21 48  1  0
 22 23  1  0
 22 49  1  0
 23 24  2  0
 23 50  1  0
 24 51  1  0
 25 31  1  0
 25 26  2  0
 26 27  1  0
 26 52  1  0
 27 28  2  0
 27 53  1  0
 28 29  1  0
 28 30  1  0
 30 31  2  0
 30 54  1  0
 31 55  1  0
 32 33  1  0
 34 35  2  0
 34 56  1  0
 35 57  1  0
 36 37  1  0
 36 58  1  0
 37 59  1  0
M  CHG  1  32   1
M  END
>  <DOCK_score>  (1) 
-58.641071

>  <SMILES>  (1) 
Oc1ccc(-c2ccc(-c3c[nH]c(N[C@@H](Cc4ccccc4)c4ccc(Cl)cc4)[nH+]3)cc2)cc1

$$$$
