CCc1ccc(-c2c[nH]c(N[C@@H](F)CNc3[nH]cc(-c4ccccc4)[nH+]3)n2)cc1
     RDKit          3D

 53 56  0  0  1  0  0  0  0  0999 V2000
  138.7477  133.8379  164.0229 C   0  0  0  0  0  0  0  0  0  0  0  0
  138.1039  135.0090  164.7679 C   0  0  0  0  0  0  0  0  0  0  0  0
  137.0252  135.6183  163.9099 C   0  0  0  0  0  0  0  0  0  0  0  0
  135.7271  135.1486  163.9983 C   0  0  0  0  0  0  0  0  0  0  0  0
  134.7341  135.7065  163.2191 C   0  0  0  0  0  0  0  0  0  0  0  0
  135.0434  136.7375  162.3337 C   0  0  0  0  0  0  0  0  0  0  0  0
  133.9817  137.3367  161.4886 C   0  0  0  0  0  0  0  0  0  0  0  0
  134.1462  138.3437  160.5952 C   0  0  0  0  0  0  0  0  0  0  0  0
  132.9154  138.5837  160.0342 N   0  0  0  0  0  0  0  0  0  0  0  0
  132.7124  139.2479  159.3570 H   0  0  0  0  0  0  0  0  0  0  0  0
  132.0323  137.7219  160.6083 C   0  0  0  0  0  0  0  0  0  0  0  0
  130.6801  137.6436  160.3223 N   0  0  0  0  0  0  0  0  0  0  0  0
  129.8398  136.6652  161.0173 C   0  0  1  0  0  0  0  0  0  0  0  0
  129.8714  136.8560  162.0899 H   0  0  0  0  0  0  0  0  0  0  0  0
  128.5214  136.7762  160.5625 F   0  0  0  0  0  0  0  0  0  0  0  0
  130.3596  135.2543  160.7347 C   0  0  0  0  0  0  0  0  0  0  0  0
  130.7683  135.1563  159.3312 N   0  0  0  0  0  0  0  0  0  0  0  0
  130.6793  133.9448  158.6673 C   0  0  0  0  0  0  0  0  0  0  0  0
  130.2364  132.7762  159.2062 N   0  0  0  0  0  0  0  0  0  0  0  0
  129.9288  132.6435  160.1166 H   0  0  0  0  0  0  0  0  0  0  0  0
  130.3024  131.8200  158.2222 C   0  0  0  0  0  0  0  0  0  0  0  0
  130.7912  132.4292  157.1136 C   0  0  0  0  0  0  0  0  0  0  0  0
  131.0391  131.7847  155.8008 C   0  0  0  0  0  0  0  0  0  0  0  0
  130.9274  132.5257  154.6257 C   0  0  0  0  0  0  0  0  0  0  0  0
  131.1651  131.9222  153.4074 C   0  0  0  0  0  0  0  0  0  0  0  0
  131.5014  130.5819  153.3506 C   0  0  0  0  0  0  0  0  0  0  0  0
  131.6081  129.8400  154.5133 C   0  0  0  0  0  0  0  0  0  0  0  0
  131.3787  130.4344  155.7375 C   0  0  0  0  0  0  0  0  0  0  0  0
  131.0129  133.7327  157.4177 N   0  0  0  0  0  0  0  0  0  0  0  0
  131.3626  134.4010  156.8077 H   0  0  0  0  0  0  0  0  0  0  0  0
  132.6732  136.9784  161.4770 N   0  0  0  0  0  0  0  0  0  0  0  0
  136.3542  137.2028  162.2446 C   0  0  0  0  0  0  0  0  0  0  0  0
  137.3380  136.6412  163.0329 C   0  0  0  0  0  0  0  0  0  0  0  0
  137.9895  133.0859  163.8038 H   0  0  0  0  0  0  0  0  0  0  0  0
  139.5279  133.3972  164.6436 H   0  0  0  0  0  0  0  0  0  0  0  0
  139.1841  134.1962  163.0905 H   0  0  0  0  0  0  0  0  0  0  0  0
  137.6676  134.6506  165.7004 H   0  0  0  0  0  0  0  0  0  0  0  0
  138.8621  135.7610  164.9870 H   0  0  0  0  0  0  0  0  0  0  0  0
  135.4895  134.3468  164.6817 H   0  0  0  0  0  0  0  0  0  0  0  0
  133.7201  135.3420  163.2921 H   0  0  0  0  0  0  0  0  0  0  0  0
  135.0686  138.8571  160.3670 H   0  0  0  0  0  0  0  0  0  0  0  0
  130.2890  138.2363  159.6616 H   0  0  0  0  0  0  0  0  0  0  0  0
  131.2151  135.0467  161.3775 H   0  0  0  0  0  0  0  0  0  0  0  0
  129.5705  134.5295  160.9348 H   0  0  0  0  0  0  0  0  0  0  0  0
  131.1013  135.9404  158.8673 H   0  0  0  0  0  0  0  0  0  0  0  0
  130.0231  130.7809  158.3149 H   0  0  0  0  0  0  0  0  0  0  0  0
  130.6601  133.5711  154.6685 H   0  0  0  0  0  0  0  0  0  0  0  0
  131.0840  132.4967  152.4965 H   0  0  0  0  0  0  0  0  0  0  0  0
  131.6819  130.1126  152.3946 H   0  0  0  0  0  0  0  0  0  0  0  0
  131.8716  128.7939  154.4630 H   0  0  0  0  0  0  0  0  0  0  0  0
  131.4625  129.8546  156.6447 H   0  0  0  0  0  0  0  0  0  0  0  0
  136.5994  138.0016  161.5604 H   0  0  0  0  0  0  0  0  0  0  0  0
  138.3541  137.0008  162.9646 H   0  0  0  0  0  0  0  0  0  0  0  0
  1  2  1  0
  1 34  1  0
  1 35  1  0
  1 36  1  0
  2  3  1  0
  2 37  1  0
  2 38  1  0
  3 33  2  0
  3  4  1  0
  4  5  2  0
  4 39  1  0
  5  6  1  0
  5 40  1  0
  6  7  1  0
  6 32  2  0
  7 31  1  0
  7  8  2  0
  8  9  1  0
  8 41  1  0
  9 10  1  0
  9 11  1  0
 11 12  1  0
 11 31  2  0
 12 13  1  0
 12 42  1  0
 13 14  1  1
 13 15  1  0
 13 16  1  0
 16 17  1  0
 16 43  1  0
 16 44  1  0
 17 45  1  0
 18 17  1  0
 18 29  2  0
 18 19  1  0
 19 20  1  0
 19 21  1  0
 21 22  2  0
 21 46  1  0
 22 23  1  0
 22 29  1  0
 23 28  1  0
 23 24  2  0
 24 25  1  0
 24 47  1  0
 25 26  2  0
 25 48  1  0
 26 27  1  0
 26 49  1  0
 27 28  2  0
 27 50  1  0
 28 51  1  0
 29 30  1  0
 32 33  1  0
 32 52  1  0
 33 53  1  0
M  CHG  1  29   1
M  END
>  <DOCK_score>  (1) 
-63.258385

>  <SMILES>  (1) 
CCc1ccc(-c2c[nH]c(N[C@@H](F)CNc3[nH]cc(-c4ccccc4)[nH+]3)n2)cc1

$$$$
