Cc1cccc([C@H](Nc2[nH]cc(-c3ccncc3)[nH+]2)c2cccc(F)c2)c1
     RDKit          3D

 47 50  0  0  1  0  0  0  0  0999 V2000
  131.3121  139.8641  159.6666 C   0  0  0  0  0  0  0  0  0  0  0  0
  130.5064  138.8497  160.4366 C   0  0  0  0  0  0  0  0  0  0  0  0
  130.0834  139.1342  161.7217 C   0  0  0  0  0  0  0  0  0  0  0  0
  129.3441  138.2040  162.4278 C   0  0  0  0  0  0  0  0  0  0  0  0
  129.0231  136.9911  161.8469 C   0  0  0  0  0  0  0  0  0  0  0  0
  129.4505  136.7046  160.5640 C   0  0  0  0  0  0  0  0  0  0  0  0
  129.1050  135.3805  159.9328 C   0  0  2  0  0  0  0  0  0  0  0  0
  129.0186  134.6198  160.7086 H   0  0  0  0  0  0  0  0  0  0  0  0
  130.1596  134.9991  158.9901 N   0  0  0  0  0  0  0  0  0  0  0  0
  130.0613  133.8120  158.2849 C   0  0  0  0  0  0  0  0  0  0  0  0
  129.4321  132.6840  158.7150 N   0  0  0  0  0  0  0  0  0  0  0  0
  128.9763  132.5687  159.5634 H   0  0  0  0  0  0  0  0  0  0  0  0
  129.5619  131.7401  157.7277 C   0  0  0  0  0  0  0  0  0  0  0  0
  130.2665  132.3165  156.7216 C   0  0  0  0  0  0  0  0  0  0  0  0
  130.6485  131.6716  155.4429 C   0  0  0  0  0  0  0  0  0  0  0  0
  130.2158  132.1912  154.2187 C   0  0  0  0  0  0  0  0  0  0  0  0
  130.5982  131.5623  153.0525 C   0  0  0  0  0  0  0  0  0  0  0  0
  131.3526  130.4806  153.0822 N   0  0  0  0  0  0  0  0  0  0  0  0
  131.7785  129.9551  154.2159 C   0  0  0  0  0  0  0  0  0  0  0  0
  131.4469  130.5232  155.4279 C   0  0  0  0  0  0  0  0  0  0  0  0
  130.5539  133.5906  157.0909 N   0  0  0  0  0  0  0  0  0  0  0  0
  131.0470  134.2334  156.5576 H   0  0  0  0  0  0  0  0  0  0  0  0
  127.7944  135.5005  159.1988 C   0  0  0  0  0  0  0  0  0  0  0  0
  127.7793  135.8765  157.8683 C   0  0  0  0  0  0  0  0  0  0  0  0
  126.5776  135.9922  157.1952 C   0  0  0  0  0  0  0  0  0  0  0  0
  125.3900  135.7217  157.8489 C   0  0  0  0  0  0  0  0  0  0  0  0
  125.4042  135.3401  159.1795 C   0  0  0  0  0  0  0  0  0  0  0  0
  124.2441  135.0760  159.8194 F   0  0  0  0  0  0  0  0  0  0  0  0
  126.6085  135.2297  159.8544 C   0  0  0  0  0  0  0  0  0  0  0  0
  130.1899  137.6351  159.8578 C   0  0  0  0  0  0  0  0  0  0  0  0
  130.6390  140.5131  159.1063 H   0  0  0  0  0  0  0  0  0  0  0  0
  131.9005  140.4636  160.3611 H   0  0  0  0  0  0  0  0  0  0  0  0
  131.9793  139.3492  158.9754 H   0  0  0  0  0  0  0  0  0  0  0  0
  130.3304  140.0833  162.1739 H   0  0  0  0  0  0  0  0  0  0  0  0
  129.0134  138.4263  163.4315 H   0  0  0  0  0  0  0  0  0  0  0  0
  128.4417  136.2659  162.3968 H   0  0  0  0  0  0  0  0  0  0  0  0
  130.9266  135.5785  158.8600 H   0  0  0  0  0  0  0  0  0  0  0  0
  129.1773  130.7311  157.7479 H   0  0  0  0  0  0  0  0  0  0  0  0
  129.5943  133.0738  154.1870 H   0  0  0  0  0  0  0  0  0  0  0  0
  130.2721  131.9583  152.1021 H   0  0  0  0  0  0  0  0  0  0  0  0
  132.3945  129.0683  154.1940 H   0  0  0  0  0  0  0  0  0  0  0  0
  131.7988  130.0882  156.3517 H   0  0  0  0  0  0  0  0  0  0  0  0
  128.7070  136.0836  157.3556 H   0  0  0  0  0  0  0  0  0  0  0  0
  126.5667  136.2895  156.1571 H   0  0  0  0  0  0  0  0  0  0  0  0
  124.4514  135.8078  157.3216 H   0  0  0  0  0  0  0  0  0  0  0  0
  126.6208  134.9317  160.8923 H   0  0  0  0  0  0  0  0  0  0  0  0
  130.5201  137.4130  158.8538 H   0  0  0  0  0  0  0  0  0  0  0  0
  1  2  1  0
  1 31  1  0
  1 32  1  0
  1 33  1  0
  2 30  2  0
  2  3  1  0
  3  4  2  0
  3 34  1  0
  4  5  1  0
  4 35  1  0
  5  6  2  0
  5 36  1  0
  6  7  1  0
  6 30  1  0
  7  8  1  1
  7  9  1  0
  7 23  1  0
  9 37  1  0
 10  9  1  0
 10 21  2  0
 10 11  1  0
 11 12  1  0
 11 13  1  0
 13 14  2  0
 13 38  1  0
 14 15  1  0
 14 21  1  0
 15 20  1  0
 15 16  2  0
 16 17  1  0
 16 39  1  0
 17 18  2  0
 17 40  1  0
 18 19  1  0
 19 20  2  0
 19 41  1  0
 20 42  1  0
 21 22  1  0
 23 29  1  0
 23 24  2  0
 24 25  1  0
 24 43  1  0
 25 26  2  0
 25 44  1  0
 26 27  1  0
 26 45  1  0
 27 28  1  0
 27 29  2  0
 29 46  1  0
 30 47  1  0
M  CHG  1  21   1
M  END
>  <DOCK_score>  (1) 
-57.406502

>  <SMILES>  (1) 
Cc1cccc([C@H](Nc2[nH]cc(-c3ccncc3)[nH+]2)c2cccc(F)c2)c1

$$$$
