Oc1ccc([C@H](Nc2[nH]cc(-c3cccnc3)[nH+]2)c2ccccc2)cc1
     RDKit          3D

 45 48  0  0  1  0  0  0  0  0999 V2000
  130.1837  140.9250  161.5320 O   0  0  0  0  0  0  0  0  0  0  0  0
  129.8984  139.6597  161.1263 C   0  0  0  0  0  0  0  0  0  0  0  0
  129.1410  138.8249  161.9350 C   0  0  0  0  0  0  0  0  0  0  0  0
  128.8522  137.5393  161.5202 C   0  0  0  0  0  0  0  0  0  0  0  0
  129.3173  137.0843  160.3001 C   0  0  0  0  0  0  0  0  0  0  0  0
  129.0007  135.6814  159.8502 C   0  0  2  0  0  0  0  0  0  0  0  0
  128.9000  135.0344  160.7215 H   0  0  0  0  0  0  0  0  0  0  0  0
  130.0836  135.1861  158.9968 N   0  0  0  0  0  0  0  0  0  0  0  0
  130.0148  133.9115  158.4609 C   0  0  0  0  0  0  0  0  0  0  0  0
  129.3891  132.8452  159.0296 N   0  0  0  0  0  0  0  0  0  0  0  0
  128.9155  132.8414  159.8761 H   0  0  0  0  0  0  0  0  0  0  0  0
  129.5523  131.7751  158.1837 C   0  0  0  0  0  0  0  0  0  0  0  0
  130.2724  132.2179  157.1235 C   0  0  0  0  0  0  0  0  0  0  0  0
  130.6918  131.4080  155.9536 C   0  0  0  0  0  0  0  0  0  0  0  0
  130.2767  131.7541  154.6644 C   0  0  0  0  0  0  0  0  0  0  0  0
  130.7003  130.9698  153.6056 C   0  0  0  0  0  0  0  0  0  0  0  0
  131.5034  129.8718  153.8560 C   0  0  0  0  0  0  0  0  0  0  0  0
  131.8747  129.5666  155.0841 N   0  0  0  0  0  0  0  0  0  0  0  0
  131.5013  130.2864  156.1225 C   0  0  0  0  0  0  0  0  0  0  0  0
  130.5415  133.5328  157.3219 N   0  0  0  0  0  0  0  0  0  0  0  0
  131.0403  134.1026  156.7159 H   0  0  0  0  0  0  0  0  0  0  0  0
  127.7094  135.6824  159.0733 C   0  0  0  0  0  0  0  0  0  0  0  0
  126.5079  135.4900  159.7291 C   0  0  0  0  0  0  0  0  0  0  0  0
  125.3231  135.4955  159.0170 C   0  0  0  0  0  0  0  0  0  0  0  0
  125.3406  135.6842  157.6478 C   0  0  0  0  0  0  0  0  0  0  0  0
  126.5425  135.8714  156.9911 C   0  0  0  0  0  0  0  0  0  0  0  0
  127.7270  135.8703  157.7038 C   0  0  0  0  0  0  0  0  0  0  0  0
  130.0772  137.9125  159.4949 C   0  0  0  0  0  0  0  0  0  0  0  0
  130.3641  139.2009  159.9026 C   0  0  0  0  0  0  0  0  0  0  0  0
  129.8164  141.1531  162.3969 H   0  0  0  0  0  0  0  0  0  0  0  0
  128.7777  139.1798  162.8881 H   0  0  0  0  0  0  0  0  0  0  0  0
  128.2622  136.8891  162.1492 H   0  0  0  0  0  0  0  0  0  0  0  0
  130.8489  135.7513  158.8074 H   0  0  0  0  0  0  0  0  0  0  0  0
  129.1788  130.7730  158.3344 H   0  0  0  0  0  0  0  0  0  0  0  0
  129.6456  132.6147  154.4982 H   0  0  0  0  0  0  0  0  0  0  0  0
  130.4031  131.2097  152.5955 H   0  0  0  0  0  0  0  0  0  0  0  0
  131.8319  129.2549  153.0327 H   0  0  0  0  0  0  0  0  0  0  0  0
  131.8257  130.0048  157.1134 H   0  0  0  0  0  0  0  0  0  0  0  0
  126.4946  135.3388  160.7985 H   0  0  0  0  0  0  0  0  0  0  0  0
  124.3840  135.3495  159.5301 H   0  0  0  0  0  0  0  0  0  0  0  0
  124.4152  135.6857  157.0911 H   0  0  0  0  0  0  0  0  0  0  0  0
  126.5562  136.0189  155.9213 H   0  0  0  0  0  0  0  0  0  0  0  0
  128.6661  136.0166  157.1908 H   0  0  0  0  0  0  0  0  0  0  0  0
  130.4435  137.5531  158.5445 H   0  0  0  0  0  0  0  0  0  0  0  0
  130.9540  139.8488  159.2713 H   0  0  0  0  0  0  0  0  0  0  0  0
  1  2  1  0
  1 30  1  0
  2 29  2  0
  2  3  1  0
  3  4  2  0
  3 31  1  0
  4  5  1  0
  4 32  1  0
  5  6  1  0
  5 28  2  0
  6  7  1  1
  6  8  1  0
  6 22  1  0
  8 33  1  0
  9  8  1  0
  9 20  2  0
  9 10  1  0
 10 11  1  0
 10 12  1  0
 12 13  2  0
 12 34  1  0
 13 14  1  0
 13 20  1  0
 14 19  1  0
 14 15  2  0
 15 16  1  0
 15 35  1  0
 16 17  2  0
 16 36  1  0
 17 18  1  0
 17 37  1  0
 18 19  2  0
 19 38  1  0
 20 21  1  0
 22 27  1  0
 22 23  2  0
 23 24  1  0
 23 39  1  0
 24 25  2  0
 24 40  1  0
 25 26  1  0
 25 41  1  0
 26 27  2  0
 26 42  1  0
 27 43  1  0
 28 29  1  0
 28 44  1  0
 29 45  1  0
M  CHG  1  20   1
M  END
>  <DOCK_score>  (1) 
-58.360794

>  <SMILES>  (1) 
Oc1ccc([C@H](Nc2[nH]cc(-c3cccnc3)[nH+]2)c2ccccc2)cc1

$$$$
