Cc1cccc([C@H](C)Nc2ccc([C@@H](C)Nc3[nH]cc(-c4ccc(Br)cc4)[nH+]3)nc2)c1
     RDKit          3D

 58 61  0  0  1  0  0  0  0  0999 V2000
  136.3105  141.5034  159.5656 C   0  0  0  0  0  0  0  0  0  0  0  0
  135.7874  141.2157  160.9493 C   0  0  0  0  0  0  0  0  0  0  0  0
  136.6597  141.1610  162.0205 C   0  0  0  0  0  0  0  0  0  0  0  0
  136.1799  140.8977  163.2897 C   0  0  0  0  0  0  0  0  0  0  0  0
  134.8270  140.6940  163.4888 C   0  0  0  0  0  0  0  0  0  0  0  0
  133.9557  140.7435  162.4170 C   0  0  0  0  0  0  0  0  0  0  0  0
  132.4816  140.5162  162.6331 C   0  0  2  0  0  0  0  0  0  0  0  0
  131.9585  140.5933  161.6800 H   0  0  0  0  0  0  0  0  0  0  0  0
  131.9393  141.5712  163.5994 C   0  0  0  0  0  0  0  0  0  0  0  0
  132.2712  139.1814  163.1992 N   0  0  0  0  0  0  0  0  0  0  0  0
  131.4934  138.2460  162.5121 C   0  0  0  0  0  0  0  0  0  0  0  0
  130.7718  137.2790  163.2083 C   0  0  0  0  0  0  0  0  0  0  0  0
  130.0157  136.3733  162.4829 C   0  0  0  0  0  0  0  0  0  0  0  0
  130.0018  136.4576  161.1028 C   0  0  0  0  0  0  0  0  0  0  0  0
  129.1814  135.4754  160.3069 C   0  0  1  0  0  0  0  0  0  0  0  0
  129.1226  134.5300  160.8461 H   0  0  0  0  0  0  0  0  0  0  0  0
  127.7719  136.0350  160.1035 C   0  0  0  0  0  0  0  0  0  0  0  0
  129.8123  135.2557  159.0030 N   0  0  0  0  0  0  0  0  0  0  0  0
  129.6712  134.0366  158.3624 C   0  0  0  0  0  0  0  0  0  0  0  0
  128.9754  132.9676  158.8369 N   0  0  0  0  0  0  0  0  0  0  0  0
  128.4934  132.9231  159.6776 H   0  0  0  0  0  0  0  0  0  0  0  0
  129.0818  131.9631  157.9058 C   0  0  0  0  0  0  0  0  0  0  0  0
  129.8342  132.4487  156.8874 C   0  0  0  0  0  0  0  0  0  0  0  0
  130.2088  131.7168  155.6528 C   0  0  0  0  0  0  0  0  0  0  0  0
  129.8201  132.2038  154.4061 C   0  0  0  0  0  0  0  0  0  0  0  0
  130.1749  131.5214  153.2603 C   0  0  0  0  0  0  0  0  0  0  0  0
  130.9071  130.3501  153.3483 C   0  0  0  0  0  0  0  0  0  0  0  0
  131.3843  129.4167  151.7744 Br  0  0  0  0  0  0  0  0  0  0  0  0
  131.2916  129.8596  154.5843 C   0  0  0  0  0  0  0  0  0  0  0  0
  130.9461  130.5368  155.7358 C   0  0  0  0  0  0  0  0  0  0  0  0
  130.1859  133.7215  157.1989 N   0  0  0  0  0  0  0  0  0  0  0  0
  130.7282  134.3064  156.6468 H   0  0  0  0  0  0  0  0  0  0  0  0
  130.7003  137.3817  160.4731 N   0  0  0  0  0  0  0  0  0  0  0  0
  131.4285  138.2663  161.1248 C   0  0  0  0  0  0  0  0  0  0  0  0
  134.4355  141.0069  161.1474 C   0  0  0  0  0  0  0  0  0  0  0  0
  136.3045  142.5793  159.3913 H   0  0  0  0  0  0  0  0  0  0  0  0
  137.3294  141.1266  159.4766 H   0  0  0  0  0  0  0  0  0  0  0  0
  135.6760  141.0122  158.8279 H   0  0  0  0  0  0  0  0  0  0  0  0
  137.7160  141.3246  161.8657 H   0  0  0  0  0  0  0  0  0  0  0  0
  136.8613  140.8554  164.1266 H   0  0  0  0  0  0  0  0  0  0  0  0
  134.4515  140.4926  164.4812 H   0  0  0  0  0  0  0  0  0  0  0  0
  130.8732  141.4069  163.7558 H   0  0  0  0  0  0  0  0  0  0  0  0
  132.4624  141.4941  164.5525 H   0  0  0  0  0  0  0  0  0  0  0  0
  132.0959  142.5643  163.1783 H   0  0  0  0  0  0  0  0  0  0  0  0
  132.6719  138.9471  164.0509 H   0  0  0  0  0  0  0  0  0  0  0  0
  130.8014  137.2363  164.2871 H   0  0  0  0  0  0  0  0  0  0  0  0
  129.4438  135.6098  162.9893 H   0  0  0  0  0  0  0  0  0  0  0  0
  127.1785  135.3247  159.5278 H   0  0  0  0  0  0  0  0  0  0  0  0
  127.3025  136.1985  161.0736 H   0  0  0  0  0  0  0  0  0  0  0  0
  127.8306  136.9805  159.5643 H   0  0  0  0  0  0  0  0  0  0  0  0
  130.3289  135.9644  158.5886 H   0  0  0  0  0  0  0  0  0  0  0  0
  128.6459  130.9771  157.9703 H   0  0  0  0  0  0  0  0  0  0  0  0
  129.2453  133.1155  154.3366 H   0  0  0  0  0  0  0  0  0  0  0  0
  129.8771  131.8997  152.2936 H   0  0  0  0  0  0  0  0  0  0  0  0
  131.8628  128.9453  154.6474 H   0  0  0  0  0  0  0  0  0  0  0  0
  131.2466  130.1534  156.6997 H   0  0  0  0  0  0  0  0  0  0  0  0
  131.9841  139.0112  160.5745 H   0  0  0  0  0  0  0  0  0  0  0  0
  133.7542  141.0499  160.3106 H   0  0  0  0  0  0  0  0  0  0  0  0
  1  2  1  0
  1 36  1  0
  1 37  1  0
  1 38  1  0
  2 35  2  0
  2  3  1  0
  3  4  2  0
  3 39  1  0
  4  5  1  0
  4 40  1  0
  5  6  2  0
  5 41  1  0
  6  7  1  0
  6 35  1  0
  7  8  1  6
  7  9  1  0
  7 10  1  0
  9 42  1  0
  9 43  1  0
  9 44  1  0
 10 11  1  0
 10 45  1  0
 11 34  1  0
 11 12  2  0
 12 13  1  0
 12 46  1  0
 13 14  2  0
 13 47  1  0
 14 15  1  0
 14 33  1  0
 15 16  1  1
 15 17  1  0
 15 18  1  0
 17 48  1  0
 17 49  1  0
 17 50  1  0
 18 51  1  0
 19 18  1  0
 19 31  2  0
 19 20  1  0
 20 21  1  0
 20 22  1  0
 22 23  2  0
 22 52  1  0
 23 24  1  0
 23 31  1  0
 24 30  1  0
 24 25  2  0
 25 26  1  0
 25 53  1  0
 26 27  2  0
 26 54  1  0
 27 28  1  0
 27 29  1  0
 29 30  2  0
 29 55  1  0
 30 56  1  0
 31 32  1  0
 33 34  2  0
 34 57  1  0
 35 58  1  0
M  CHG  1  31   1
M  END
>  <DOCK_score>  (1) 
-58.543896

>  <SMILES>  (1) 
Cc1cccc([C@H](C)Nc2ccc([C@@H](C)Nc3[nH]cc(-c4ccc(Br)cc4)[nH+]3)nc2)c1

$$$$
