O=C1CCC(NC(N[C@H]2CCC(=O)NC2)=[NH+][C@H]2COc3ccccc3C2O)CN1
     RDKit          3D

 57 60  0  0  1  0  0  0  0  0999 V2000
  123.8022  133.6567  161.6266 O   0  0  0  0  0  0  0  0  0  0  0  0
  124.9591  133.9741  161.4488 C   0  0  0  0  0  0  0  0  0  0  0  0
  125.8902  132.9600  160.8487 C   0  0  0  0  0  0  0  0  0  0  0  0
  127.3425  133.3707  161.1043 C   0  0  0  0  0  0  0  0  0  0  0  0
  127.5065  134.8432  160.7087 C   0  0  2  0  0  0  0  0  0  0  0  0
  128.9216  135.2160  160.7777 N   0  0  0  0  0  0  0  0  0  0  0  0
  129.7258  135.0695  159.6722 C   0  0  0  0  0  0  0  0  0  0  0  0
  129.2020  134.5733  158.5020 N   0  0  0  0  0  0  0  0  0  0  0  0
  130.0530  133.8137  157.5827 C   0  0  1  0  0  0  0  0  0  0  0  0
  131.0821  134.1634  157.6636 H   0  0  0  0  0  0  0  0  0  0  0  0
  129.9877  132.3215  157.9301 C   0  0  0  0  0  0  0  0  0  0  0  0
  131.0171  131.5780  157.0782 C   0  0  0  0  0  0  0  0  0  0  0  0
  130.8881  131.9913  155.6402 C   0  0  0  0  0  0  0  0  0  0  0  0
  131.3906  131.2844  154.7926 O   0  0  0  0  0  0  0  0  0  0  0  0
  130.2459  133.0913  155.2452 N   0  0  0  0  0  0  0  0  0  0  0  0
  129.5576  134.0047  156.1487 C   0  0  0  0  0  0  0  0  0  0  0  0
  130.9848  135.4014  159.7336 N   0  0  0  0  0  0  0  0  0  0  0  0
  131.4420  135.7185  158.9392 H   0  0  0  0  0  0  0  0  0  0  0  0
  131.7092  135.2952  161.0026 C   0  0  1  0  0  0  0  0  0  0  0  0
  131.2859  134.4883  161.6009 H   0  0  0  0  0  0  0  0  0  0  0  0
  133.1924  135.0144  160.7294 C   0  0  0  0  0  0  0  0  0  0  0  0
  133.6901  136.0321  159.8594 O   0  0  0  0  0  0  0  0  0  0  0  0
  133.4308  137.3258  160.1824 C   0  0  0  0  0  0  0  0  0  0  0  0
  134.1867  138.3254  159.5775 C   0  0  0  0  0  0  0  0  0  0  0  0
  133.9499  139.6515  159.8757 C   0  0  0  0  0  0  0  0  0  0  0  0
  132.9586  139.9899  160.7785 C   0  0  0  0  0  0  0  0  0  0  0  0
  132.2075  139.0005  161.3820 C   0  0  0  0  0  0  0  0  0  0  0  0
  132.4415  137.6673  161.0876 C   0  0  0  0  0  0  0  0  0  0  0  0
  131.6032  136.6160  161.7692 C   0  0  2  0  0  0  0  0  0  0  0  0
  132.0708  136.4284  163.1065 O   0  0  0  0  0  0  0  0  0  0  0  0
  126.7009  135.7045  161.6821 C   0  0  0  0  0  0  0  0  0  0  0  0
  125.3364  135.2051  161.7962 N   0  0  0  0  0  0  0  0  0  0  0  0
  125.7150  132.8986  159.7746 H   0  0  0  0  0  0  0  0  0  0  0  0
  125.7040  131.9865  161.3022 H   0  0  0  0  0  0  0  0  0  0  0  0
  128.0097  132.7528  160.5037 H   0  0  0  0  0  0  0  0  0  0  0  0
  127.5790  133.2462  162.1610 H   0  0  0  0  0  0  0  0  0  0  0  0
  127.1381  134.9923  159.6937 H   0  0  0  0  0  0  0  0  0  0  0  0
  129.2911  135.5661  161.6034 H   0  0  0  0  0  0  0  0  0  0  0  0
  128.2690  134.7261  158.2849 H   0  0  0  0  0  0  0  0  0  0  0  0
  130.2138  132.1806  158.9870 H   0  0  0  0  0  0  0  0  0  0  0  0
  128.9909  131.9375  157.7130 H   0  0  0  0  0  0  0  0  0  0  0  0
  130.8518  130.5039  157.1626 H   0  0  0  0  0  0  0  0  0  0  0  0
  132.0185  131.8180  157.4355 H   0  0  0  0  0  0  0  0  0  0  0  0
  130.2364  133.2964  154.2971 H   0  0  0  0  0  0  0  0  0  0  0  0
  129.7468  135.0315  155.8359 H   0  0  0  0  0  0  0  0  0  0  0  0
  128.4859  133.8086  156.1117 H   0  0  0  0  0  0  0  0  0  0  0  0
  133.7476  135.0291  161.6672 H   0  0  0  0  0  0  0  0  0  0  0  0
  133.2999  134.0399  160.2536 H   0  0  0  0  0  0  0  0  0  0  0  0
  134.9609  138.0622  158.8720 H   0  0  0  0  0  0  0  0  0  0  0  0
  134.5382  140.4247  159.4040 H   0  0  0  0  0  0  0  0  0  0  0  0
  132.7714  141.0278  161.0112 H   0  0  0  0  0  0  0  0  0  0  0  0
  131.4337  139.2674  162.0865 H   0  0  0  0  0  0  0  0  0  0  0  0
  130.5628  136.9403  161.7908 H   0  0  0  0  0  0  0  0  0  0  0  0
  132.0326  137.2259  163.6520 H   0  0  0  0  0  0  0  0  0  0  0  0
  127.1765  135.6807  162.6626 H   0  0  0  0  0  0  0  0  0  0  0  0
  126.6792  136.7326  161.3206 H   0  0  0  0  0  0  0  0  0  0  0  0
  124.6603  135.8057  162.1469 H   0  0  0  0  0  0  0  0  0  0  0  0
  1  2  2  0
  2 32  1  0
  2  3  1  0
  3  4  1  0
  3 33  1  0
  3 34  1  0
  4  5  1  0
  4 35  1  0
  4 36  1  0
  5  6  1  0
  5 31  1  0
  5 37  1  6
  6 38  1  0
  7  6  1  1
  7  8  1  0
  7 17  2  0
  8  9  1  0
  8 39  1  0
  9 10  1  6
  9 16  1  0
  9 11  1  0
 11 12  1  0
 11 40  1  0
 11 41  1  0
 12 13  1  0
 12 42  1  0
 12 43  1  0
 13 14  2  0
 13 15  1  0
 15 16  1  0
 15 44  1  0
 16 45  1  0
 16 46  1  0
 17 18  1  0
 17 19  1  0
 19 20  1  1
 19 29  1  0
 19 21  1  0
 21 22  1  0
 21 47  1  0
 21 48  1  0
 22 23  1  0
 23 28  2  0
 23 24  1  0
 24 25  2  0
 24 49  1  0
 25 26  1  0
 25 50  1  0
 26 27  2  0
 26 51  1  0
 27 28  1  0
 27 52  1  0
 28 29  1  0
 29 30  1  0
 29 53  1  1
 30 54  1  0
 31 32  1  0
 31 55  1  0
 31 56  1  0
 32 57  1  0
M  CHG  1  17   1
M  END
>  <DOCK_score>  (1) 
-42.691101

>  <SMILES>  (1) 
O=C1CCC(NC(N[C@H]2CCC(=O)NC2)=[NH+][C@H]2COc3ccccc3C2O)CN1

$$$$
