Nc1ccc(-c2c[nH]c(N[C@]3(C(=O)NC4CC(F)(F)C4)COc4cc(O)ccc4C3)[nH+]2)cc1
     RDKit          3D

 57 61  0  0  1  0  0  0  0  0999 V2000
  131.1925  130.1190  151.6164 N   0  0  0  0  0  0  0  0  0  0  0  0
  130.9908  130.6929  152.8739 C   0  0  0  0  0  0  0  0  0  0  0  0
  130.7281  132.0534  152.9817 C   0  0  0  0  0  0  0  0  0  0  0  0
  130.5286  132.6221  154.2219 C   0  0  0  0  0  0  0  0  0  0  0  0
  130.5910  131.8314  155.3683 C   0  0  0  0  0  0  0  0  0  0  0  0
  130.3766  132.4408  156.7037 C   0  0  0  0  0  0  0  0  0  0  0  0
  129.8525  131.8200  157.7893 C   0  0  0  0  0  0  0  0  0  0  0  0
  129.8388  132.7428  158.8083 N   0  0  0  0  0  0  0  0  0  0  0  0
  129.5235  132.5945  159.7136 H   0  0  0  0  0  0  0  0  0  0  0  0
  130.3470  133.9032  158.3116 C   0  0  0  0  0  0  0  0  0  0  0  0
  130.5023  135.0834  159.0184 N   0  0  0  0  0  0  0  0  0  0  0  0
  129.5852  135.4070  160.1141 C   0  0  2  0  0  0  0  0  0  0  0  0
  128.2302  134.8090  159.8357 C   0  0  0  0  0  0  0  0  0  0  0  0
  127.6178  135.1318  158.8400 O   0  0  0  0  0  0  0  0  0  0  0  0
  127.6991  133.9152  160.6935 N   0  0  0  0  0  0  0  0  0  0  0  0
  126.3817  133.3340  160.4230 C   0  0  0  0  0  0  0  0  0  0  0  0
  126.3746  132.3384  159.2510 C   0  0  0  0  0  0  0  0  0  0  0  0
  126.7046  131.2449  160.2806 C   0  0  0  0  0  0  0  0  0  0  0  0
  128.0765  131.0657  160.4878 F   0  0  0  0  0  0  0  0  0  0  0  0
  126.0259  130.0420  160.0575 F   0  0  0  0  0  0  0  0  0  0  0  0
  126.0349  132.1440  161.3332 C   0  0  0  0  0  0  0  0  0  0  0  0
  129.4600  136.9298  160.2509 C   0  0  0  0  0  0  0  0  0  0  0  0
  130.7697  137.4767  160.4101 O   0  0  0  0  0  0  0  0  0  0  0  0
  131.5853  136.9117  161.3382 C   0  0  0  0  0  0  0  0  0  0  0  0
  132.6978  137.6278  161.7662 C   0  0  0  0  0  0  0  0  0  0  0  0
  133.5549  137.0845  162.7082 C   0  0  0  0  0  0  0  0  0  0  0  0
  134.6410  137.7866  163.1259 O   0  0  0  0  0  0  0  0  0  0  0  0
  133.3020  135.8215  163.2250 C   0  0  0  0  0  0  0  0  0  0  0  0
  132.1970  135.1122  162.8001 C   0  0  0  0  0  0  0  0  0  0  0  0
  131.3358  135.6538  161.8593 C   0  0  0  0  0  0  0  0  0  0  0  0
  130.1347  134.8499  161.4297 C   0  0  0  0  0  0  0  0  0  0  0  0
  130.6704  133.7178  157.0548 N   0  0  0  0  0  0  0  0  0  0  0  0
  131.0579  134.3871  156.4693 H   0  0  0  0  0  0  0  0  0  0  0  0
  130.8606  130.4681  155.2584 C   0  0  0  0  0  0  0  0  0  0  0  0
  131.0533  129.9025  154.0155 C   0  0  0  0  0  0  0  0  0  0  0  0
  131.1494  130.6699  150.8193 H   0  0  0  0  0  0  0  0  0  0  0  0
  131.3759  129.1696  151.5403 H   0  0  0  0  0  0  0  0  0  0  0  0
  130.6799  132.6656  152.0933 H   0  0  0  0  0  0  0  0  0  0  0  0
  130.3246  133.6794  154.3052 H   0  0  0  0  0  0  0  0  0  0  0  0
  129.5152  130.7956  157.8443 H   0  0  0  0  0  0  0  0  0  0  0  0
  131.2184  135.6959  158.7884 H   0  0  0  0  0  0  0  0  0  0  0  0
  128.1889  133.6570  161.4900 H   0  0  0  0  0  0  0  0  0  0  0  0
  125.5924  134.0833  160.3642 H   0  0  0  0  0  0  0  0  0  0  0  0
  125.3962  132.2190  158.7855 H   0  0  0  0  0  0  0  0  0  0  0  0
  127.1708  132.5108  158.5268 H   0  0  0  0  0  0  0  0  0  0  0  0
  126.5568  132.1593  162.2900 H   0  0  0  0  0  0  0  0  0  0  0  0
  124.9636  131.9714  161.4370 H   0  0  0  0  0  0  0  0  0  0  0  0
  128.9964  137.3421  159.3548 H   0  0  0  0  0  0  0  0  0  0  0  0
  128.8522  137.1714  161.1230 H   0  0  0  0  0  0  0  0  0  0  0  0
  132.8937  138.6103  161.3630 H   0  0  0  0  0  0  0  0  0  0  0  0
  134.7321  138.6546  162.7094 H   0  0  0  0  0  0  0  0  0  0  0  0
  133.9694  135.3940  163.9587 H   0  0  0  0  0  0  0  0  0  0  0  0
  132.0021  134.1297  163.2036 H   0  0  0  0  0  0  0  0  0  0  0  0
  129.3643  134.9095  162.1986 H   0  0  0  0  0  0  0  0  0  0  0  0
  130.4262  133.8090  161.2891 H   0  0  0  0  0  0  0  0  0  0  0  0
  130.9138  129.8544  156.1454 H   0  0  0  0  0  0  0  0  0  0  0  0
  131.2575  128.8455  153.9295 H   0  0  0  0  0  0  0  0  0  0  0  0
  1  2  1  0
  1 36  1  0
  1 37  1  0
  2 35  2  0
  2  3  1  0
  3  4  2  0
  3 38  1  0
  4  5  1  0
  4 39  1  0
  5  6  1  0
  5 34  2  0
  6 32  1  0
  6  7  2  0
  7  8  1  0
  7 40  1  0
  8  9  1  0
  8 10  1  0
 10 11  1  0
 10 32  2  0
 12 11  1  6
 11 41  1  0
 12 31  1  0
 12 13  1  0
 12 22  1  0
 13 14  2  0
 13 15  1  0
 15 16  1  0
 15 42  1  0
 16 21  1  0
 16 17  1  0
 16 43  1  0
 17 18  1  0
 17 44  1  0
 17 45  1  0
 18 19  1  0
 18 20  1  0
 18 21  1  0
 21 46  1  0
 21 47  1  0
 22 23  1  0
 22 48  1  0
 22 49  1  0
 23 24  1  0
 24 30  2  0
 24 25  1  0
 25 26  2  0
 25 50  1  0
 26 27  1  0
 26 28  1  0
 27 51  1  0
 28 29  2  0
 28 52  1  0
 29 30  1  0
 29 53  1  0
 30 31  1  0
 31 54  1  0
 31 55  1  0
 32 33  1  0
 34 35  1  0
 34 56  1  0
 35 57  1  0
M  CHG  1  32   1
M  END
>  <DOCK_score>  (1) 
-57.557472

>  <SMILES>  (1) 
Nc1ccc(-c2c[nH]c(N[C@]3(C(=O)NC4CC(F)(F)C4)COc4cc(O)ccc4C3)[nH+]2)cc1

$$$$
