Cn1nccc1C=C[C@H](Nc1[nH]cc(-c2ccc(N)cc2)[nH+]1)c1ccccc1
     RDKit          3D

 51 54  0  0  1  0  0  0  0  0999 V2000
  131.7759  139.7202  158.7251 C   0  0  0  0  0  0  0  0  0  0  0  0
  131.0585  139.7252  160.0024 N   0  0  0  0  0  0  0  0  0  0  0  0
  131.0757  140.7516  160.9550 N   0  0  0  0  0  0  0  0  0  0  0  0
  130.3192  140.4024  161.9643 C   0  0  0  0  0  0  0  0  0  0  0  0
  129.7797  139.1432  161.7040 C   0  0  0  0  0  0  0  0  0  0  0  0
  130.2545  138.7300  160.4773 C   0  0  0  0  0  0  0  0  0  0  0  0
  129.9467  137.4569  159.8033 C   0  0  0  0  0  0  0  0  0  0  0  0
  129.6857  136.3710  160.5224 C   0  0  0  0  0  0  0  0  0  0  0  0
  129.2580  135.0985  159.8374 C   0  0  2  0  0  0  0  0  0  0  0  0
  129.0900  134.3227  160.5844 H   0  0  0  0  0  0  0  0  0  0  0  0
  130.3076  134.6658  158.9116 N   0  0  0  0  0  0  0  0  0  0  0  0
  130.1389  133.5128  158.1640 C   0  0  0  0  0  0  0  0  0  0  0  0
  129.4162  132.4230  158.5401 N   0  0  0  0  0  0  0  0  0  0  0  0
  128.9281  132.3162  159.3716 H   0  0  0  0  0  0  0  0  0  0  0  0
  129.5007  131.5037  157.5213 C   0  0  0  0  0  0  0  0  0  0  0  0
  130.2718  132.0586  156.5540 C   0  0  0  0  0  0  0  0  0  0  0  0
  130.6390  131.4289  155.2619 C   0  0  0  0  0  0  0  0  0  0  0  0
  130.2703  132.0333  154.0611 C   0  0  0  0  0  0  0  0  0  0  0  0
  130.6181  131.4494  152.8612 C   0  0  0  0  0  0  0  0  0  0  0  0
  131.3247  130.2527  152.8485 C   0  0  0  0  0  0  0  0  0  0  0  0
  131.6705  129.6597  151.6319 N   0  0  0  0  0  0  0  0  0  0  0  0
  131.6885  129.6454  154.0447 C   0  0  0  0  0  0  0  0  0  0  0  0
  131.3482  130.2289  155.2469 C   0  0  0  0  0  0  0  0  0  0  0  0
  130.6485  133.2913  156.9768 N   0  0  0  0  0  0  0  0  0  0  0  0
  131.2062  133.9102  156.4798 H   0  0  0  0  0  0  0  0  0  0  0  0
  127.9830  135.3438  159.0725 C   0  0  0  0  0  0  0  0  0  0  0  0
  126.7600  135.1452  159.6857 C   0  0  0  0  0  0  0  0  0  0  0  0
  125.5905  135.3739  158.9852 C   0  0  0  0  0  0  0  0  0  0  0  0
  125.6438  135.7931  157.6689 C   0  0  0  0  0  0  0  0  0  0  0  0
  126.8668  135.9865  157.0542 C   0  0  0  0  0  0  0  0  0  0  0  0
  128.0363  135.7616  157.7559 C   0  0  0  0  0  0  0  0  0  0  0  0
  131.1763  140.2282  157.9698 H   0  0  0  0  0  0  0  0  0  0  0  0
  132.7283  140.2375  158.8413 H   0  0  0  0  0  0  0  0  0  0  0  0
  131.9567  138.6914  158.4140 H   0  0  0  0  0  0  0  0  0  0  0  0
  130.1389  140.9936  162.8498 H   0  0  0  0  0  0  0  0  0  0  0  0
  129.1122  138.5902  162.3482 H   0  0  0  0  0  0  0  0  0  0  0  0
  129.9334  137.4064  158.7246 H   0  0  0  0  0  0  0  0  0  0  0  0
  129.7798  136.3999  161.5979 H   0  0  0  0  0  0  0  0  0  0  0  0
  131.1206  135.1871  158.8221 H   0  0  0  0  0  0  0  0  0  0  0  0
  129.0405  130.5269  157.4963 H   0  0  0  0  0  0  0  0  0  0  0  0
  129.7167  132.9605  154.0704 H   0  0  0  0  0  0  0  0  0  0  0  0
  130.3369  131.9197  151.9307 H   0  0  0  0  0  0  0  0  0  0  0  0
  132.1643  128.8247  151.6224 H   0  0  0  0  0  0  0  0  0  0  0  0
  131.4173  130.0830  150.7968 H   0  0  0  0  0  0  0  0  0  0  0  0
  132.2378  128.7154  154.0326 H   0  0  0  0  0  0  0  0  0  0  0  0
  131.6313  129.7567  156.1761 H   0  0  0  0  0  0  0  0  0  0  0  0
  126.7184  134.8146  160.7129 H   0  0  0  0  0  0  0  0  0  0  0  0
  124.6351  135.2224  159.4654 H   0  0  0  0  0  0  0  0  0  0  0  0
  124.7300  135.9692  157.1208 H   0  0  0  0  0  0  0  0  0  0  0  0
  126.9084  136.3137  156.0258 H   0  0  0  0  0  0  0  0  0  0  0  0
  128.9918  135.9127  157.2755 H   0  0  0  0  0  0  0  0  0  0  0  0
  1  2  1  0
  1 32  1  0
  1 33  1  0
  1 34  1  0
  2  6  1  0
  2  3  1  0
  3  4  2  0
  4  5  1  0
  4 35  1  0
  5  6  2  0
  5 36  1  0
  6  7  1  0
  7  8  2  0
  7 37  1  0
  8  9  1  0
  8 38  1  0
  9 10  1  1
  9 11  1  0
  9 26  1  0
 11 39  1  0
 12 11  1  0
 12 24  2  0
 12 13  1  0
 13 14  1  0
 13 15  1  0
 15 16  2  0
 15 40  1  0
 16 17  1  0
 16 24  1  0
 17 23  1  0
 17 18  2  0
 18 19  1  0
 18 41  1  0
 19 20  2  0
 19 42  1  0
 20 21  1  0
 20 22  1  0
 21 43  1  0
 21 44  1  0
 22 23  2  0
 22 45  1  0
 23 46  1  0
 24 25  1  0
 26 31  1  0
 26 27  2  0
 27 28  1  0
 27 47  1  0
 28 29  2  0
 28 48  1  0
 29 30  1  0
 29 49  1  0
 30 31  2  0
 30 50  1  0
 31 51  1  0
M  CHG  1  24   1
M  END
>  <DOCK_score>  (1) 
-63.735794

>  <SMILES>  (1) 
Cn1nccc1C=C[C@H](Nc1[nH]cc(-c2ccc(N)cc2)[nH+]1)c1ccccc1

$$$$
