Nc1ccc(-c2c[nH]c(Nc3ccccc3CCCCc3cccc4ccccc34)[nH+]2)cc1
     RDKit          3D

 62 66  0  0  1  0  0  0  0  0999 V2000
  131.7104  129.5932  151.5578 N   0  0  0  0  0  0  0  0  0  0  0  0
  131.3379  130.2929  152.7081 C   0  0  0  0  0  0  0  0  0  0  0  0
  130.7747  131.5589  152.5984 C   0  0  0  0  0  0  0  0  0  0  0  0
  130.4062  132.2513  153.7325 C   0  0  0  0  0  0  0  0  0  0  0  0
  130.5989  131.6806  154.9897 C   0  0  0  0  0  0  0  0  0  0  0  0
  130.2032  132.4236  156.2114 C   0  0  0  0  0  0  0  0  0  0  0  0
  129.7835  131.8746  157.3783 C   0  0  0  0  0  0  0  0  0  0  0  0
  129.5225  132.9153  158.2372 N   0  0  0  0  0  0  0  0  0  0  0  0
  129.2057  132.8406  159.1509 H   0  0  0  0  0  0  0  0  0  0  0  0
  129.7908  134.0701  157.5686 C   0  0  0  0  0  0  0  0  0  0  0  0
  129.6565  135.3497  158.0822 N   0  0  0  0  0  0  0  0  0  0  0  0
  128.6896  135.6137  159.0564 C   0  0  0  0  0  0  0  0  0  0  0  0
  127.5106  134.8793  159.0845 C   0  0  0  0  0  0  0  0  0  0  0  0
  126.5580  135.1422  160.0488 C   0  0  0  0  0  0  0  0  0  0  0  0
  126.7762  136.1358  160.9858 C   0  0  0  0  0  0  0  0  0  0  0  0
  127.9482  136.8691  160.9605 C   0  0  0  0  0  0  0  0  0  0  0  0
  128.9055  136.6109  159.9989 C   0  0  0  0  0  0  0  0  0  0  0  0
  130.1830  137.4099  159.9727 C   0  0  0  0  0  0  0  0  0  0  0  0
  131.2356  136.7173  160.8406 C   0  0  0  0  0  0  0  0  0  0  0  0
  132.5326  137.5285  160.8139 C   0  0  0  0  0  0  0  0  0  0  0  0
  133.5852  136.8358  161.6818 C   0  0  0  0  0  0  0  0  0  0  0  0
  134.8627  137.6348  161.6556 C   0  0  0  0  0  0  0  0  0  0  0  0
  134.9385  138.7802  160.9240 C   0  0  0  0  0  0  0  0  0  0  0  0
  136.1095  139.5347  160.8912 C   0  0  0  0  0  0  0  0  0  0  0  0
  137.2149  139.1430  161.5824 C   0  0  0  0  0  0  0  0  0  0  0  0
  137.1764  137.9633  162.3446 C   0  0  0  0  0  0  0  0  0  0  0  0
  138.2974  137.5273  163.0715 C   0  0  0  0  0  0  0  0  0  0  0  0
  138.2233  136.3797  163.7993 C   0  0  0  0  0  0  0  0  0  0  0  0
  137.0507  135.6272  163.8353 C   0  0  0  0  0  0  0  0  0  0  0  0
  135.9453  136.0186  163.1445 C   0  0  0  0  0  0  0  0  0  0  0  0
  135.9836  137.1983  162.3816 C   0  0  0  0  0  0  0  0  0  0  0  0
  130.1918  133.7718  156.3567 N   0  0  0  0  0  0  0  0  0  0  0  0
  130.4428  134.4132  155.6737 H   0  0  0  0  0  0  0  0  0  0  0  0
  131.1692  130.4132  155.0975 C   0  0  0  0  0  0  0  0  0  0  0  0
  131.5304  129.7218  153.9605 C   0  0  0  0  0  0  0  0  0  0  0  0
  131.5760  129.9909  150.6834 H   0  0  0  0  0  0  0  0  0  0  0  0
  132.1035  128.7097  151.6335 H   0  0  0  0  0  0  0  0  0  0  0  0
  130.6261  132.0006  151.6243 H   0  0  0  0  0  0  0  0  0  0  0  0
  129.9684  133.2347  153.6469 H   0  0  0  0  0  0  0  0  0  0  0  0
  129.6747  130.8215  157.5916 H   0  0  0  0  0  0  0  0  0  0  0  0
  130.2333  136.0624  157.7657 H   0  0  0  0  0  0  0  0  0  0  0  0
  127.3398  134.1031  158.3533 H   0  0  0  0  0  0  0  0  0  0  0  0
  125.6433  134.5685  160.0741 H   0  0  0  0  0  0  0  0  0  0  0  0
  126.0292  136.3397  161.7388 H   0  0  0  0  0  0  0  0  0  0  0  0
  128.1155  137.6442  161.6938 H   0  0  0  0  0  0  0  0  0  0  0  0
  130.5465  137.4804  158.9475 H   0  0  0  0  0  0  0  0  0  0  0  0
  129.9937  138.4107  160.3606 H   0  0  0  0  0  0  0  0  0  0  0  0
  130.8721  136.6469  161.8657 H   0  0  0  0  0  0  0  0  0  0  0  0
  131.4250  135.7164  160.4525 H   0  0  0  0  0  0  0  0  0  0  0  0
  132.8960  137.5990  159.7888 H   0  0  0  0  0  0  0  0  0  0  0  0
  132.3432  138.5293  161.2019 H   0  0  0  0  0  0  0  0  0  0  0  0
  133.2217  136.7654  162.7069 H   0  0  0  0  0  0  0  0  0  0  0  0
  133.7747  135.8350  161.2937 H   0  0  0  0  0  0  0  0  0  0  0  0
  134.0768  139.1112  160.3633 H   0  0  0  0  0  0  0  0  0  0  0  0
  136.1419  140.4416  160.3059 H   0  0  0  0  0  0  0  0  0  0  0  0
  138.1169  139.7357  161.5446 H   0  0  0  0  0  0  0  0  0  0  0  0
  139.2130  138.0998  163.0525 H   0  0  0  0  0  0  0  0  0  0  0  0
  139.0862  136.0469  164.3570 H   0  0  0  0  0  0  0  0  0  0  0  0
  137.0185  134.7201  164.4205 H   0  0  0  0  0  0  0  0  0  0  0  0
  135.0434  135.4257  163.1824 H   0  0  0  0  0  0  0  0  0  0  0  0
  131.3237  129.9711  156.0708 H   0  0  0  0  0  0  0  0  0  0  0  0
  131.9678  128.7379  154.0434 H   0  0  0  0  0  0  0  0  0  0  0  0
  1  2  1  0
  1 36  1  0
  1 37  1  0
  2 35  2  0
  2  3  1  0
  3  4  2  0
  3 38  1  0
  4  5  1  0
  4 39  1  0
  5  6  1  0
  5 34  2  0
  6 32  1  0
  6  7  2  0
  7  8  1  0
  7 40  1  0
  8  9  1  0
  8 10  1  0
 10 11  1  0
 10 32  2  0
 11 12  1  0
 11 41  1  0
 12 17  1  0
 12 13  2  0
 13 14  1  0
 13 42  1  0
 14 15  2  0
 14 43  1  0
 15 16  1  0
 15 44  1  0
 16 17  2  0
 16 45  1  0
 17 18  1  0
 18 19  1  0
 18 46  1  0
 18 47  1  0
 19 20  1  0
 19 48  1  0
 19 49  1  0
 20 21  1  0
 20 50  1  0
 20 51  1  0
 21 22  1  0
 21 52  1  0
 21 53  1  0
 22 31  1  0
 22 23  2  0
 23 24  1  0
 23 54  1  0
 24 25  2  0
 24 55  1  0
 25 26  1  0
 25 56  1  0
 26 31  2  0
 26 27  1  0
 27 28  2  0
 27 57  1  0
 28 29  1  0
 28 58  1  0
 29 30  2  0
 29 59  1  0
 30 31  1  0
 30 60  1  0
 32 33  1  0
 34 35  1  0
 34 61  1  0
 35 62  1  0
M  CHG  1  32   1
M  END
>  <DOCK_score>  (1) 
-67.760124

>  <SMILES>  (1) 
Nc1ccc(-c2c[nH]c(Nc3ccccc3CCCCc3cccc4ccccc34)[nH+]2)cc1

$$$$
