CCOC(=O)/C=C/C=C[C@@H](Nc1ccc(C(=O)NC2CC[NH2+]C3(CC3)C2)c(C)c1)c1cnn(C)c1
     RDKit          3D

 71 74  0  0  1  0  0  0  0  0999 V2000
  135.7048  138.1381  165.7392 C   0  0  0  0  0  0  0  0  0  0  0  0
  135.2273  139.0242  166.8914 C   0  0  0  0  0  0  0  0  0  0  0  0
  133.9475  139.5736  166.5711 O   0  0  0  0  0  0  0  0  0  0  0  0
  133.9335  140.7583  165.9253 C   0  0  0  0  0  0  0  0  0  0  0  0
  134.9806  141.3091  165.6423 O   0  0  0  0  0  0  0  0  0  0  0  0
  132.6984  141.3639  165.5818 C   0  0  0  0  0  0  0  0  0  0  0  0
  131.5339  140.7539  165.9016 C   0  0  0  0  0  0  0  0  0  0  0  0
  130.2594  141.3788  165.5474 C   0  0  0  0  0  0  0  0  0  0  0  0
  129.1109  140.7772  165.8627 C   0  0  0  0  0  0  0  0  0  0  0  0
  127.7981  141.4208  165.4977 C   0  0  1  0  0  0  0  0  0  0  0  0
  127.9234  142.0130  164.5912 H   0  0  0  0  0  0  0  0  0  0  0  0
  126.7920  140.3813  165.2669 N   0  0  0  0  0  0  0  0  0  0  0  0
  126.9894  139.4326  164.2698 C   0  0  0  0  0  0  0  0  0  0  0  0
  127.7225  139.7604  163.1333 C   0  0  0  0  0  0  0  0  0  0  0  0
  127.9195  138.8231  162.1454 C   0  0  0  0  0  0  0  0  0  0  0  0
  127.3822  137.5399  162.2843 C   0  0  0  0  0  0  0  0  0  0  0  0
  127.5917  136.5323  161.2272 C   0  0  0  0  0  0  0  0  0  0  0  0
  126.6365  136.0422  160.6564 O   0  0  0  0  0  0  0  0  0  0  0  0
  128.8420  136.1551  160.8943 N   0  0  0  0  0  0  0  0  0  0  0  0
  129.0503  135.1546  159.8446 C   0  0  1  0  0  0  0  0  0  0  0  0
  129.1805  135.8540  158.4890 C   0  0  0  0  0  0  0  0  0  0  0  0
  129.4057  134.8112  157.3933 C   0  0  0  0  0  0  0  0  0  0  0  0
  130.6728  134.1070  157.6321 N   0  0  0  0  0  0  0  0  0  0  0  0
  130.8146  133.4152  156.9114 H   0  0  0  0  0  0  0  0  0  0  0  0
  131.4339  134.7692  157.6176 H   0  0  0  0  0  0  0  0  0  0  0  0
  130.6221  133.4459  158.9435 C   0  0  0  0  0  0  0  0  0  0  0  0
  131.5566  132.2594  159.1788 C   0  0  0  0  0  0  0  0  0  0  0  0
  130.0544  132.0274  159.0019 C   0  0  0  0  0  0  0  0  0  0  0  0
  130.3378  134.3728  160.1294 C   0  0  0  0  0  0  0  0  0  0  0  0
  126.6463  137.2133  163.4269 C   0  0  0  0  0  0  0  0  0  0  0  0
  126.0651  135.8313  163.5803 C   0  0  0  0  0  0  0  0  0  0  0  0
  126.4577  138.1535  164.4142 C   0  0  0  0  0  0  0  0  0  0  0  0
  127.3471  142.3154  166.6236 C   0  0  0  0  0  0  0  0  0  0  0  0
  127.1190  143.6927  166.5395 C   0  0  0  0  0  0  0  0  0  0  0  0
  126.7394  144.1169  167.7175 N   0  0  0  0  0  0  0  0  0  0  0  0
  126.7139  143.0212  168.5899 N   0  0  0  0  0  0  0  0  0  0  0  0
  126.3434  143.0559  170.0069 C   0  0  0  0  0  0  0  0  0  0  0  0
  127.0857  141.9268  167.8931 C   0  0  0  0  0  0  0  0  0  0  0  0
  134.9910  137.3292  165.5831 H   0  0  0  0  0  0  0  0  0  0  0  0
  135.7826  138.7345  164.8302 H   0  0  0  0  0  0  0  0  0  0  0  0
  136.6808  137.7190  165.9836 H   0  0  0  0  0  0  0  0  0  0  0  0
  135.9410  139.8331  167.0476 H   0  0  0  0  0  0  0  0  0  0  0  0
  135.1494  138.4279  167.8005 H   0  0  0  0  0  0  0  0  0  0  0  0
  132.6872  142.3121  165.0650 H   0  0  0  0  0  0  0  0  0  0  0  0
  131.5452  139.8057  166.4185 H   0  0  0  0  0  0  0  0  0  0  0  0
  130.2482  142.3270  165.0305 H   0  0  0  0  0  0  0  0  0  0  0  0
  129.1222  139.8289  166.3795 H   0  0  0  0  0  0  0  0  0  0  0  0
  125.9881  140.3554  165.8092 H   0  0  0  0  0  0  0  0  0  0  0  0
  128.1376  140.7517  163.0268 H   0  0  0  0  0  0  0  0  0  0  0  0
  128.4882  139.0786  161.2635 H   0  0  0  0  0  0  0  0  0  0  0  0
  129.6041  136.5462  161.3496 H   0  0  0  0  0  0  0  0  0  0  0  0
  128.2033  134.4690  159.8213 H   0  0  0  0  0  0  0  0  0  0  0  0
  128.2672  136.4104  158.2784 H   0  0  0  0  0  0  0  0  0  0  0  0
  130.0260  136.5415  158.5150 H   0  0  0  0  0  0  0  0  0  0  0  0
  128.5851  134.0938  157.4013 H   0  0  0  0  0  0  0  0  0  0  0  0
  129.4444  135.3069  156.4233 H   0  0  0  0  0  0  0  0  0  0  0  0
  132.2114  131.9642  158.3590 H   0  0  0  0  0  0  0  0  0  0  0  0
  131.9706  132.1356  160.1794 H   0  0  0  0  0  0  0  0  0  0  0  0
  129.4802  131.7511  159.8863 H   0  0  0  0  0  0  0  0  0  0  0  0
  129.7205  131.5798  158.0658 H   0  0  0  0  0  0  0  0  0  0  0  0
  131.1673  135.0682  160.2569 H   0  0  0  0  0  0  0  0  0  0  0  0
  130.2125  133.7795  161.0353 H   0  0  0  0  0  0  0  0  0  0  0  0
  126.8263  135.1587  163.9754 H   0  0  0  0  0  0  0  0  0  0  0  0
  125.2196  135.8670  164.2676 H   0  0  0  0  0  0  0  0  0  0  0  0
  125.7285  135.4688  162.6090 H   0  0  0  0  0  0  0  0  0  0  0  0
  125.8932  137.9003  165.2995 H   0  0  0  0  0  0  0  0  0  0  0  0
  127.2357  144.3011  165.6548 H   0  0  0  0  0  0  0  0  0  0  0  0
  125.2712  142.8873  170.1063 H   0  0  0  0  0  0  0  0  0  0  0  0
  126.8851  142.2769  170.5433 H   0  0  0  0  0  0  0  0  0  0  0  0
  126.5984  144.0297  170.4253 H   0  0  0  0  0  0  0  0  0  0  0  0
  127.1631  140.9215  168.2801 H   0  0  0  0  0  0  0  0  0  0  0  0
  1  2  1  0
  1 39  1  0
  1 40  1  0
  1 41  1  0
  2  3  1  0
  2 42  1  0
  2 43  1  0
  3  4  1  0
  4  5  2  0
  4  6  1  0
  6  7  2  0
  6 44  1  0
  7  8  1  0
  7 45  1  0
  8  9  2  0
  8 46  1  0
  9 10  1  0
  9 47  1  0
 10 11  1  6
 10 12  1  0
 10 33  1  0
 12 13  1  0
 12 48  1  0
 13 32  1  0
 13 14  2  0
 14 15  1  0
 14 49  1  0
 15 16  2  0
 15 50  1  0
 16 17  1  0
 16 30  1  0
 17 18  2  0
 17 19  1  0
 19 20  1  0
 19 51  1  0
 20 29  1  0
 20 21  1  0
 20 52  1  6
 21 22  1  0
 21 53  1  0
 21 54  1  0
 22 23  1  0
 22 55  1  0
 22 56  1  0
 23 24  1  0
 23 25  1  0
 23 26  1  0
 26 28  1  0
 26 27  1  0
 26 29  1  0
 27 28  1  0
 27 57  1  0
 27 58  1  0
 28 59  1  0
 28 60  1  0
 29 61  1  0
 29 62  1  0
 30 31  1  0
 30 32  2  0
 31 63  1  0
 31 64  1  0
 31 65  1  0
 32 66  1  0
 33 38  2  0
 33 34  1  0
 34 35  2  0
 34 67  1  0
 35 36  1  0
 36 37  1  0
 36 38  1  0
 37 68  1  0
 37 69  1  0
 37 70  1  0
 38 71  1  0
M  CHG  1  23   1
M  END
>  <DOCK_score>  (1) 
-42.587654

>  <SMILES>  (1) 
CCOC(=O)/C=C/C=C[C@@H](Nc1ccc(C(=O)NC2CC[NH2+]C3(CC3)C2)c(C)c1)c1cnn(C)c1

$$$$
