CNc1ccccc1Nc1ccccc1[C@@H](O)c1cc(O)cc(Cl)c1Nc1[nH]cc(C)[nH+]1
     RDKit          3D

 57 60  0  0  1  0  0  0  0  0999 V2000
  137.3564  134.1098  163.2274 C   0  0  0  0  0  0  0  0  0  0  0  0
  135.9720  134.5607  163.0654 N   0  0  0  0  0  0  0  0  0  0  0  0
  135.1897  134.8374  164.1927 C   0  0  0  0  0  0  0  0  0  0  0  0
  135.7231  134.6855  165.4637 C   0  0  0  0  0  0  0  0  0  0  0  0
  134.9505  134.9652  166.5756 C   0  0  0  0  0  0  0  0  0  0  0  0
  133.6436  135.3908  166.4251 C   0  0  0  0  0  0  0  0  0  0  0  0
  133.1018  135.5397  165.1620 C   0  0  0  0  0  0  0  0  0  0  0  0
  133.8696  135.2618  164.0411 C   0  0  0  0  0  0  0  0  0  0  0  0
  133.3229  135.4117  162.7607 N   0  0  0  0  0  0  0  0  0  0  0  0
  132.8483  136.6581  162.3457 C   0  0  0  0  0  0  0  0  0  0  0  0
  133.4172  137.8224  162.8476 C   0  0  0  0  0  0  0  0  0  0  0  0
  132.9489  139.0526  162.4311 C   0  0  0  0  0  0  0  0  0  0  0  0
  131.9074  139.1272  161.5239 C   0  0  0  0  0  0  0  0  0  0  0  0
  131.3352  137.9706  161.0268 C   0  0  0  0  0  0  0  0  0  0  0  0
  131.8024  136.7366  161.4347 C   0  0  0  0  0  0  0  0  0  0  0  0
  131.1788  135.4767  160.8916 C   0  0  1  0  0  0  0  0  0  0  0  0
  131.7034  135.1728  159.9857 H   0  0  0  0  0  0  0  0  0  0  0  0
  131.2746  134.4383  161.8687 O   0  0  0  0  0  0  0  0  0  0  0  0
  129.7286  135.7320  160.5707 C   0  0  0  0  0  0  0  0  0  0  0  0
  128.8602  136.1311  161.5681 C   0  0  0  0  0  0  0  0  0  0  0  0
  127.5256  136.3665  161.2734 C   0  0  0  0  0  0  0  0  0  0  0  0
  126.6719  136.7592  162.2563 O   0  0  0  0  0  0  0  0  0  0  0  0
  127.0609  136.2012  159.9767 C   0  0  0  0  0  0  0  0  0  0  0  0
  127.9276  135.8013  158.9779 C   0  0  0  0  0  0  0  0  0  0  0  0
  127.3463  135.5940  157.3552 Cl  0  0  0  0  0  0  0  0  0  0  0  0
  129.2666  135.5717  159.2715 C   0  0  0  0  0  0  0  0  0  0  0  0
  130.1480  135.1731  158.2585 N   0  0  0  0  0  0  0  0  0  0  0  0
  129.9158  133.9989  157.5606 C   0  0  0  0  0  0  0  0  0  0  0  0
  129.2895  132.8938  158.0484 N   0  0  0  0  0  0  0  0  0  0  0  0
  128.9262  132.7834  158.9410 H   0  0  0  0  0  0  0  0  0  0  0  0
  129.2684  131.9629  157.0350 C   0  0  0  0  0  0  0  0  0  0  0  0
  129.8751  132.5237  155.9750 C   0  0  0  0  0  0  0  0  0  0  0  0
  130.0858  131.8725  154.6323 C   0  0  0  0  0  0  0  0  0  0  0  0
  130.2575  133.7659  156.3153 N   0  0  0  0  0  0  0  0  0  0  0  0
  130.7157  134.3915  155.7327 H   0  0  0  0  0  0  0  0  0  0  0  0
  137.9073  134.8353  163.8260 H   0  0  0  0  0  0  0  0  0  0  0  0
  137.3671  133.1422  163.7287 H   0  0  0  0  0  0  0  0  0  0  0  0
  137.8251  134.0166  162.2477 H   0  0  0  0  0  0  0  0  0  0  0  0
  135.5975  134.6676  162.1771 H   0  0  0  0  0  0  0  0  0  0  0  0
  136.7435  134.3528  165.5849 H   0  0  0  0  0  0  0  0  0  0  0  0
  135.3689  134.8506  167.5647 H   0  0  0  0  0  0  0  0  0  0  0  0
  133.0442  135.6074  167.2971 H   0  0  0  0  0  0  0  0  0  0  0  0
  132.0804  135.8720  165.0483 H   0  0  0  0  0  0  0  0  0  0  0  0
  133.2739  134.6502  162.1620 H   0  0  0  0  0  0  0  0  0  0  0  0
  134.2276  137.7649  163.5590 H   0  0  0  0  0  0  0  0  0  0  0  0
  133.3935  139.9578  162.8173 H   0  0  0  0  0  0  0  0  0  0  0  0
  131.5406  140.0908  161.2027 H   0  0  0  0  0  0  0  0  0  0  0  0
  130.5222  138.0324  160.3186 H   0  0  0  0  0  0  0  0  0  0  0  0
  130.8291  134.6407  162.7027 H   0  0  0  0  0  0  0  0  0  0  0  0
  129.2207  136.2600  162.5779 H   0  0  0  0  0  0  0  0  0  0  0  0
  125.7634  136.8988  161.9557 H   0  0  0  0  0  0  0  0  0  0  0  0
  126.0215  136.3849  159.7481 H   0  0  0  0  0  0  0  0  0  0  0  0
  130.9210  135.7191  158.0455 H   0  0  0  0  0  0  0  0  0  0  0  0
  128.8450  130.9705  157.0826 H   0  0  0  0  0  0  0  0  0  0  0  0
  129.2772  132.1579  153.9592 H   0  0  0  0  0  0  0  0  0  0  0  0
  131.0382  132.1996  154.2152 H   0  0  0  0  0  0  0  0  0  0  0  0
  130.0941  130.7891  154.7513 H   0  0  0  0  0  0  0  0  0  0  0  0
  1  2  1  0
  1 36  1  0
  1 37  1  0
  1 38  1  0
  2  3  1  0
  2 39  1  0
  3  8  2  0
  3  4  1  0
  4  5  2  0
  4 40  1  0
  5  6  1  0
  5 41  1  0
  6  7  2  0
  6 42  1  0
  7  8  1  0
  7 43  1  0
  8  9  1  0
  9 10  1  0
  9 44  1  0
 10 15  1  0
 10 11  2  0
 11 12  1  0
 11 45  1  0
 12 13  2  0
 12 46  1  0
 13 14  1  0
 13 47  1  0
 14 15  2  0
 14 48  1  0
 15 16  1  0
 16 17  1  6
 16 18  1  0
 16 19  1  0
 18 49  1  0
 19 26  1  0
 19 20  2  0
 20 21  1  0
 20 50  1  0
 21 22  1  0
 21 23  2  0
 22 51  1  0
 23 24  1  0
 23 52  1  0
 24 25  1  0
 24 26  2  0
 26 27  1  0
 27 53  1  0
 28 27  1  0
 28 34  2  0
 28 29  1  0
 29 30  1  0
 29 31  1  0
 31 32  2  0
 31 54  1  0
 32 33  1  0
 32 34  1  0
 33 55  1  0
 33 56  1  0
 33 57  1  0
 34 35  1  0
M  CHG  1  34   1
M  END
>  <DOCK_score>  (1) 
-57.783375

>  <SMILES>  (1) 
CNc1ccccc1Nc1ccccc1[C@@H](O)c1cc(O)cc(Cl)c1Nc1[nH]cc(C)[nH+]1

$$$$
