CNc1ccc(Nc2[nH]cc(-c3ccccc3)[nH+]2)c(C)c1
     RDKit          3D

 40 42  0  0  1  0  0  0  0  0999 V2000
  127.1323  137.2742  163.6762 C   0  0  0  0  0  0  0  0  0  0  0  0
  126.6489  136.8897  162.3477 N   0  0  0  0  0  0  0  0  0  0  0  0
  127.5548  136.4639  161.3697 C   0  0  0  0  0  0  0  0  0  0  0  0
  128.9122  136.4059  161.6583 C   0  0  0  0  0  0  0  0  0  0  0  0
  129.8060  135.9868  160.6933 C   0  0  0  0  0  0  0  0  0  0  0  0
  129.3477  135.6227  159.4336 C   0  0  0  0  0  0  0  0  0  0  0  0
  130.2545  135.1980  158.4543 N   0  0  0  0  0  0  0  0  0  0  0  0
  130.1401  133.9306  157.9078 C   0  0  0  0  0  0  0  0  0  0  0  0
  129.6394  132.8354  158.5427 N   0  0  0  0  0  0  0  0  0  0  0  0
  129.3052  132.8016  159.4526 H   0  0  0  0  0  0  0  0  0  0  0  0
  129.6957  131.7871  157.6571 C   0  0  0  0  0  0  0  0  0  0  0  0
  130.2284  132.2710  156.5076 C   0  0  0  0  0  0  0  0  0  0  0  0
  130.4799  131.4958  155.2682 C   0  0  0  0  0  0  0  0  0  0  0  0
  129.8555  131.8600  154.0764 C   0  0  0  0  0  0  0  0  0  0  0  0
  130.0977  131.1386  152.9252 C   0  0  0  0  0  0  0  0  0  0  0  0
  130.9489  130.0488  152.9548 C   0  0  0  0  0  0  0  0  0  0  0  0
  131.5670  129.6790  154.1361 C   0  0  0  0  0  0  0  0  0  0  0  0
  131.3370  130.3969  155.2922 C   0  0  0  0  0  0  0  0  0  0  0  0
  130.4909  133.5888  156.6918 N   0  0  0  0  0  0  0  0  0  0  0  0
  130.8763  134.1836  156.0294 H   0  0  0  0  0  0  0  0  0  0  0  0
  127.9913  135.6853  159.1435 C   0  0  0  0  0  0  0  0  0  0  0  0
  127.4948  135.2962  157.7747 C   0  0  0  0  0  0  0  0  0  0  0  0
  127.0967  136.0999  160.1104 C   0  0  0  0  0  0  0  0  0  0  0  0
  127.8290  138.1073  163.5822 H   0  0  0  0  0  0  0  0  0  0  0  0
  126.2882  137.5749  164.2970 H   0  0  0  0  0  0  0  0  0  0  0  0
  127.6393  136.4269  164.1377 H   0  0  0  0  0  0  0  0  0  0  0  0
  125.7009  136.9301  162.1461 H   0  0  0  0  0  0  0  0  0  0  0  0
  129.2685  136.6891  162.6378 H   0  0  0  0  0  0  0  0  0  0  0  0
  130.8615  135.9423  160.9176 H   0  0  0  0  0  0  0  0  0  0  0  0
  130.9626  135.7914  158.1589 H   0  0  0  0  0  0  0  0  0  0  0  0
  129.3766  130.7719  157.8410 H   0  0  0  0  0  0  0  0  0  0  0  0
  129.1872  132.7080  154.0530 H   0  0  0  0  0  0  0  0  0  0  0  0
  129.6186  131.4230  151.9999 H   0  0  0  0  0  0  0  0  0  0  0  0
  131.1320  129.4844  152.0525 H   0  0  0  0  0  0  0  0  0  0  0  0
  132.2307  128.8274  154.1536 H   0  0  0  0  0  0  0  0  0  0  0  0
  131.8205  130.1079  156.2136 H   0  0  0  0  0  0  0  0  0  0  0  0
  127.2626  134.2315  157.7616 H   0  0  0  0  0  0  0  0  0  0  0  0
  126.5968  135.8671  157.5382 H   0  0  0  0  0  0  0  0  0  0  0  0
  128.2661  135.5091  157.0344 H   0  0  0  0  0  0  0  0  0  0  0  0
  126.0413  136.1447  159.8859 H   0  0  0  0  0  0  0  0  0  0  0  0
  1  2  1  0
  1 24  1  0
  1 25  1  0
  1 26  1  0
  2  3  1  0
  2 27  1  0
  3 23  2  0
  3  4  1  0
  4  5  2  0
  4 28  1  0
  5  6  1  0
  5 29  1  0
  6  7  1  0
  6 21  2  0
  7 30  1  0
  8  7  1  0
  8 19  2  0
  8  9  1  0
  9 10  1  0
  9 11  1  0
 11 12  2  0
 11 31  1  0
 12 13  1  0
 12 19  1  0
 13 18  1  0
 13 14  2  0
 14 15  1  0
 14 32  1  0
 15 16  2  0
 15 33  1  0
 16 17  1  0
 16 34  1  0
 17 18  2  0
 17 35  1  0
 18 36  1  0
 19 20  1  0
 21 22  1  0
 21 23  1  0
 22 37  1  0
 22 38  1  0
 22 39  1  0
 23 40  1  0
M  CHG  1  19   1
M  END
>  <DOCK_score>  (1) 
-52.535923

>  <SMILES>  (1) 
CNc1ccc(Nc2[nH]cc(-c3ccccc3)[nH+]2)c(C)c1

$$$$
