Nc1ccc(-c2c[nH]c(N[C@@H](c3ccccn3)c3cncc4ccccc34)[nH+]2)cc1
     RDKit          3D

 51 55  0  0  1  0  0  0  0  0999 V2000
  131.2841  129.6768  152.3186 N   0  0  0  0  0  0  0  0  0  0  0  0
  130.9592  130.4224  153.4543 C   0  0  0  0  0  0  0  0  0  0  0  0
  130.2668  131.6209  153.3220 C   0  0  0  0  0  0  0  0  0  0  0  0
  129.9452  132.3594  154.4412 C   0  0  0  0  0  0  0  0  0  0  0  0
  130.3144  131.9034  155.7057 C   0  0  0  0  0  0  0  0  0  0  0  0
  129.9699  132.6963  156.9113 C   0  0  0  0  0  0  0  0  0  0  0  0
  129.1980  132.2809  157.9456 C   0  0  0  0  0  0  0  0  0  0  0  0
  129.1383  133.3219  158.8418 N   0  0  0  0  0  0  0  0  0  0  0  0
  128.6588  133.3275  159.6849 H   0  0  0  0  0  0  0  0  0  0  0  0
  129.8763  134.3427  158.3272 C   0  0  0  0  0  0  0  0  0  0  0  0
  130.0719  135.5768  158.9236 N   0  0  0  0  0  0  0  0  0  0  0  0
  129.4573  135.8690  160.2210 C   0  0  1  0  0  0  0  0  0  0  0  0
  128.3737  135.7860  160.1366 H   0  0  0  0  0  0  0  0  0  0  0  0
  129.9581  134.8853  161.2469 C   0  0  0  0  0  0  0  0  0  0  0  0
  129.1449  134.5302  162.3067 C   0  0  0  0  0  0  0  0  0  0  0  0
  129.6152  133.6248  163.2452 C   0  0  0  0  0  0  0  0  0  0  0  0
  130.8918  133.1082  163.0820 C   0  0  0  0  0  0  0  0  0  0  0  0
  131.6492  133.5145  162.0002 C   0  0  0  0  0  0  0  0  0  0  0  0
  131.1671  134.3737  161.1235 N   0  0  0  0  0  0  0  0  0  0  0  0
  129.8223  137.2679  160.6461 C   0  0  0  0  0  0  0  0  0  0  0  0
  131.0049  137.8243  160.2623 C   0  0  0  0  0  0  0  0  0  0  0  0
  131.3501  139.0527  160.6225 N   0  0  0  0  0  0  0  0  0  0  0  0
  130.5854  139.8160  161.3679 C   0  0  0  0  0  0  0  0  0  0  0  0
  129.3443  139.3374  161.8168 C   0  0  0  0  0  0  0  0  0  0  0  0
  128.4904  140.1141  162.6157 C   0  0  0  0  0  0  0  0  0  0  0  0
  127.2912  139.6028  163.0095 C   0  0  0  0  0  0  0  0  0  0  0  0
  126.9034  138.3147  162.6450 C   0  0  0  0  0  0  0  0  0  0  0  0
  127.7083  137.5305  161.8753 C   0  0  0  0  0  0  0  0  0  0  0  0
  128.9462  138.0273  161.4424 C   0  0  0  0  0  0  0  0  0  0  0  0
  130.3669  133.9672  157.1712 N   0  0  0  0  0  0  0  0  0  0  0  0
  130.9262  134.5107  156.5944 H   0  0  0  0  0  0  0  0  0  0  0  0
  131.0130  130.7038  155.8352 C   0  0  0  0  0  0  0  0  0  0  0  0
  131.3278  129.9661  154.7136 C   0  0  0  0  0  0  0  0  0  0  0  0
  131.0269  129.9948  151.4391 H   0  0  0  0  0  0  0  0  0  0  0  0
  131.7673  128.8406  152.4097 H   0  0  0  0  0  0  0  0  0  0  0  0
  129.9809  131.9740  152.3421 H   0  0  0  0  0  0  0  0  0  0  0  0
  129.4073  133.2903  154.3382 H   0  0  0  0  0  0  0  0  0  0  0  0
  128.7209  131.3172  158.0462 H   0  0  0  0  0  0  0  0  0  0  0  0
  130.6158  136.2478  158.4825 H   0  0  0  0  0  0  0  0  0  0  0  0
  128.1553  134.9523  162.4023 H   0  0  0  0  0  0  0  0  0  0  0  0
  129.0020  133.3285  164.0834 H   0  0  0  0  0  0  0  0  0  0  0  0
  131.2906  132.4006  163.7939 H   0  0  0  0  0  0  0  0  0  0  0  0
  132.6463  133.1205  161.8685 H   0  0  0  0  0  0  0  0  0  0  0  0
  131.6805  137.2485  159.6475 H   0  0  0  0  0  0  0  0  0  0  0  0
  130.9107  140.8105  161.6357 H   0  0  0  0  0  0  0  0  0  0  0  0
  128.7770  141.1141  162.9059 H   0  0  0  0  0  0  0  0  0  0  0  0
  126.6332  140.2025  163.6209 H   0  0  0  0  0  0  0  0  0  0  0  0
  125.9499  137.9321  162.9784 H   0  0  0  0  0  0  0  0  0  0  0  0
  127.3955  136.5340  161.6002 H   0  0  0  0  0  0  0  0  0  0  0  0
  131.3036  130.3508  156.8135 H   0  0  0  0  0  0  0  0  0  0  0  0
  131.8653  129.0348  154.8138 H   0  0  0  0  0  0  0  0  0  0  0  0
  1  2  1  0
  1 34  1  0
  1 35  1  0
  2 33  2  0
  2  3  1  0
  3  4  2  0
  3 36  1  0
  4  5  1  0
  4 37  1  0
  5  6  1  0
  5 32  2  0
  6 30  1  0
  6  7  2  0
  7  8  1  0
  7 38  1  0
  8  9  1  0
  8 10  1  0
 10 11  1  0
 10 30  2  0
 11 12  1  0
 11 39  1  0
 12 13  1  6
 12 14  1  0
 12 20  1  0
 14 19  1  0
 14 15  2  0
 15 16  1  0
 15 40  1  0
 16 17  2  0
 16 41  1  0
 17 18  1  0
 17 42  1  0
 18 19  2  0
 18 43  1  0
 20 29  1  0
 20 21  2  0
 21 22  1  0
 21 44  1  0
 22 23  2  0
 23 24  1  0
 23 45  1  0
 24 29  2  0
 24 25  1  0
 25 26  2  0
 25 46  1  0
 26 27  1  0
 26 47  1  0
 27 28  2  0
 27 48  1  0
 28 29  1  0
 28 49  1  0
 30 31  1  0
 32 33  1  0
 32 50  1  0
 33 51  1  0
M  CHG  1  30   1
M  END
>  <DOCK_score>  (1) 
-57.679218

>  <SMILES>  (1) 
Nc1ccc(-c2c[nH]c(N[C@@H](c3ccccn3)c3cncc4ccccc34)[nH+]2)cc1

$$$$
