C[NH+](C[C@@H](O)Cc1ccccc1)C1c2cc(O)ccc2-c2ccc(O)cc21
     RDKit          3D

 51 54  0  0  1  0  0  0  0  0999 V2000
  128.2003  134.6631  157.8627 C   0  0  0  0  0  0  0  0  0  0  0  0
  129.3842  134.7192  158.7305 N   0  0  1  0  0  0  0  0  0  0  0  0
  130.2124  134.5440  158.1813 H   0  0  0  0  0  0  0  0  0  0  0  0
  129.4774  136.0498  159.3461 C   0  0  0  0  0  0  0  0  0  0  0  0
  130.7104  136.1082  160.2501 C   0  0  1  0  0  0  0  0  0  0  0  0
  130.4849  135.6308  161.2036 H   0  0  0  0  0  0  0  0  0  0  0  0
  131.7957  135.4248  159.6200 O   0  0  0  0  0  0  0  0  0  0  0  0
  131.0980  137.5687  160.4902 C   0  0  0  0  0  0  0  0  0  0  0  0
  129.9534  138.2896  161.1545 C   0  0  0  0  0  0  0  0  0  0  0  0
  129.7693  139.6423  160.9375 C   0  0  0  0  0  0  0  0  0  0  0  0
  128.7165  140.3023  161.5432 C   0  0  0  0  0  0  0  0  0  0  0  0
  127.8541  139.6119  162.3742 C   0  0  0  0  0  0  0  0  0  0  0  0
  128.0415  138.2603  162.5954 C   0  0  0  0  0  0  0  0  0  0  0  0
  129.0911  137.5992  161.9856 C   0  0  0  0  0  0  0  0  0  0  0  0
  129.2692  133.7000  159.7821 C   0  0  0  0  0  0  0  0  0  0  0  0
  127.8330  133.5730  160.2277 C   0  0  0  0  0  0  0  0  0  0  0  0
  126.9568  134.4750  160.7914 C   0  0  0  0  0  0  0  0  0  0  0  0
  125.6649  134.0802  161.1122 C   0  0  0  0  0  0  0  0  0  0  0  0
  124.8023  134.9682  161.6724 O   0  0  0  0  0  0  0  0  0  0  0  0
  125.2530  132.7795  160.8553 C   0  0  0  0  0  0  0  0  0  0  0  0
  126.1245  131.8758  160.2869 C   0  0  0  0  0  0  0  0  0  0  0  0
  127.4268  132.2667  159.9671 C   0  0  0  0  0  0  0  0  0  0  0  0
  128.5504  131.5121  159.3587 C   0  0  0  0  0  0  0  0  0  0  0  0
  128.6389  130.1871  158.9255 C   0  0  0  0  0  0  0  0  0  0  0  0
  129.8157  129.7150  158.3856 C   0  0  0  0  0  0  0  0  0  0  0  0
  130.9164  130.5533  158.2691 C   0  0  0  0  0  0  0  0  0  0  0  0
  132.0745  130.0840  157.7351 O   0  0  0  0  0  0  0  0  0  0  0  0
  130.8331  131.8713  158.6977 C   0  0  0  0  0  0  0  0  0  0  0  0
  129.6586  132.3469  159.2390 C   0  0  0  0  0  0  0  0  0  0  0  0
  127.3157  134.9398  158.4362 H   0  0  0  0  0  0  0  0  0  0  0  0
  128.3258  135.3569  157.0314 H   0  0  0  0  0  0  0  0  0  0  0  0
  128.0808  133.6510  157.4761 H   0  0  0  0  0  0  0  0  0  0  0  0
  129.5627  136.8060  158.5658 H   0  0  0  0  0  0  0  0  0  0  0  0
  128.5827  136.2390  159.9393 H   0  0  0  0  0  0  0  0  0  0  0  0
  132.0511  135.7964  158.7646 H   0  0  0  0  0  0  0  0  0  0  0  0
  131.9764  137.6103  161.1341 H   0  0  0  0  0  0  0  0  0  0  0  0
  131.3235  138.0462  159.5366 H   0  0  0  0  0  0  0  0  0  0  0  0
  130.4456  140.1825  160.2917 H   0  0  0  0  0  0  0  0  0  0  0  0
  128.5704  141.3584  161.3706 H   0  0  0  0  0  0  0  0  0  0  0  0
  127.0343  140.1287  162.8509 H   0  0  0  0  0  0  0  0  0  0  0  0
  127.3678  137.7211  163.2449 H   0  0  0  0  0  0  0  0  0  0  0  0
  129.2376  136.5432  162.1586 H   0  0  0  0  0  0  0  0  0  0  0  0
  129.9034  133.9609  160.6293 H   0  0  0  0  0  0  0  0  0  0  0  0
  127.2762  135.4880  160.9869 H   0  0  0  0  0  0  0  0  0  0  0  0
  125.1779  135.8488  161.8092 H   0  0  0  0  0  0  0  0  0  0  0  0
  124.2464  132.4750  161.1013 H   0  0  0  0  0  0  0  0  0  0  0  0
  125.8002  130.8649  160.0882 H   0  0  0  0  0  0  0  0  0  0  0  0
  127.7848  129.5321  159.0142 H   0  0  0  0  0  0  0  0  0  0  0  0
  129.8818  128.6901  158.0518 H   0  0  0  0  0  0  0  0  0  0  0  0
  132.7836  130.7402  157.6953 H   0  0  0  0  0  0  0  0  0  0  0  0
  131.6891  132.5235  158.6073 H   0  0  0  0  0  0  0  0  0  0  0  0
  1  2  1  0
  1 30  1  0
  1 31  1  0
  1 32  1  0
  2  3  1  6
  2  4  1  0
  2 15  1  0
  4  5  1  0
  4 33  1  0
  4 34  1  0
  5  6  1  1
  5  7  1  0
  5  8  1  0
  7 35  1  0
  8  9  1  0
  8 36  1  0
  8 37  1  0
  9 14  1  0
  9 10  2  0
 10 11  1  0
 10 38  1  0
 11 12  2  0
 11 39  1  0
 12 13  1  0
 12 40  1  0
 13 14  2  0
 13 41  1  0
 14 42  1  0
 15 29  1  0
 15 16  1  0
 15 43  1  0
 16 22  1  0
 16 17  2  0
 17 18  1  0
 17 44  1  0
 18 19  1  0
 18 20  2  0
 19 45  1  0
 20 21  1  0
 20 46  1  0
 21 22  2  0
 21 47  1  0
 22 23  1  0
 23 29  2  0
 23 24  1  0
 24 25  2  0
 24 48  1  0
 25 26  1  0
 25 49  1  0
 26 27  1  0
 26 28  2  0
 27 50  1  0
 28 29  1  0
 28 51  1  0
M  CHG  1   2   1
M  END
>  <DOCK_score>  (1) 
-46.425964

>  <SMILES>  (1) 
C[NH+](C[C@@H](O)Cc1ccccc1)C1c2cc(O)ccc2-c2ccc(O)cc21

$$$$
