CCc1ccc(-c2c[nH]c(N[C@@H](C=Cc3ccccc3)c3ccccc3)[nH+]2)cc1
     RDKit          3D

 55 58  0  0  1  0  0  0  0  0999 V2000
  130.5991  128.3043  151.9234 C   0  0  0  0  0  0  0  0  0  0  0  0
  131.6507  129.3672  152.2474 C   0  0  0  0  0  0  0  0  0  0  0  0
  131.2285  130.1343  153.4740 C   0  0  0  0  0  0  0  0  0  0  0  0
  131.6183  129.6983  154.7270 C   0  0  0  0  0  0  0  0  0  0  0  0
  131.2395  130.3998  155.8535 C   0  0  0  0  0  0  0  0  0  0  0  0
  130.4529  131.5434  155.7273 C   0  0  0  0  0  0  0  0  0  0  0  0
  130.0379  132.2985  156.9347 C   0  0  0  0  0  0  0  0  0  0  0  0
  129.3045  131.8129  157.9668 C   0  0  0  0  0  0  0  0  0  0  0  0
  129.1516  132.8406  158.8654 N   0  0  0  0  0  0  0  0  0  0  0  0
  128.6721  132.8006  159.7076 H   0  0  0  0  0  0  0  0  0  0  0  0
  129.7967  133.9251  158.3557 C   0  0  0  0  0  0  0  0  0  0  0  0
  129.8808  135.1694  158.9568 N   0  0  0  0  0  0  0  0  0  0  0  0
  128.7997  135.6366  159.8280 C   0  0  1  0  0  0  0  0  0  0  0  0
  128.6837  134.9474  160.6645 H   0  0  0  0  0  0  0  0  0  0  0  0
  129.1339  137.0098  160.3512 C   0  0  0  0  0  0  0  0  0  0  0  0
  129.2415  137.2137  161.6566 C   0  0  0  0  0  0  0  0  0  0  0  0
  129.5693  138.5606  162.1697 C   0  0  0  0  0  0  0  0  0  0  0  0
  130.1659  139.5035  161.3318 C   0  0  0  0  0  0  0  0  0  0  0  0
  130.4649  140.7606  161.8155 C   0  0  0  0  0  0  0  0  0  0  0  0
  130.1838  141.0838  163.1307 C   0  0  0  0  0  0  0  0  0  0  0  0
  129.5973  140.1518  163.9683 C   0  0  0  0  0  0  0  0  0  0  0  0
  129.2887  138.8928  163.4955 C   0  0  0  0  0  0  0  0  0  0  0  0
  127.5136  135.6968  159.0447 C   0  0  0  0  0  0  0  0  0  0  0  0
  126.3051  135.4891  159.6830 C   0  0  0  0  0  0  0  0  0  0  0  0
  125.1252  135.5488  158.9653 C   0  0  0  0  0  0  0  0  0  0  0  0
  125.1544  135.8070  157.6075 C   0  0  0  0  0  0  0  0  0  0  0  0
  126.3632  136.0094  156.9683 C   0  0  0  0  0  0  0  0  0  0  0  0
  127.5429  135.9541  157.6869 C   0  0  0  0  0  0  0  0  0  0  0  0
  130.3300  133.5957  157.2047 N   0  0  0  0  0  0  0  0  0  0  0  0
  130.8485  134.1857  156.6356 H   0  0  0  0  0  0  0  0  0  0  0  0
  130.0582  131.9752  154.4622 C   0  0  0  0  0  0  0  0  0  0  0  0
  130.4477  131.2690  153.3423 C   0  0  0  0  0  0  0  0  0  0  0  0
  129.6394  128.7867  151.7380 H   0  0  0  0  0  0  0  0  0  0  0  0
  130.9044  127.7496  151.0362 H   0  0  0  0  0  0  0  0  0  0  0  0
  130.5045  127.6189  152.7657 H   0  0  0  0  0  0  0  0  0  0  0  0
  132.6101  128.8853  152.4323 H   0  0  0  0  0  0  0  0  0  0  0  0
  131.7450  130.0531  151.4046 H   0  0  0  0  0  0  0  0  0  0  0  0
  132.2238  128.8092  154.8240 H   0  0  0  0  0  0  0  0  0  0  0  0
  131.5484  130.0609  156.8314 H   0  0  0  0  0  0  0  0  0  0  0  0
  128.9149  130.8103  158.0635 H   0  0  0  0  0  0  0  0  0  0  0  0
  130.6556  135.7318  158.8011 H   0  0  0  0  0  0  0  0  0  0  0  0
  129.2858  137.8278  159.6624 H   0  0  0  0  0  0  0  0  0  0  0  0
  129.0896  136.3958  162.3453 H   0  0  0  0  0  0  0  0  0  0  0  0
  130.3899  139.2510  160.3059 H   0  0  0  0  0  0  0  0  0  0  0  0
  130.9232  141.4925  161.1670 H   0  0  0  0  0  0  0  0  0  0  0  0
  130.4237  142.0679  163.5055 H   0  0  0  0  0  0  0  0  0  0  0  0
  129.3805  140.4101  164.9944 H   0  0  0  0  0  0  0  0  0  0  0  0
  128.8315  138.1657  164.1504 H   0  0  0  0  0  0  0  0  0  0  0  0
  126.2826  135.2838  160.7430 H   0  0  0  0  0  0  0  0  0  0  0  0
  124.1807  135.3909  159.4649 H   0  0  0  0  0  0  0  0  0  0  0  0
  124.2327  135.8509  157.0464 H   0  0  0  0  0  0  0  0  0  0  0  0
  126.3861  136.2111  155.9076 H   0  0  0  0  0  0  0  0  0  0  0  0
  128.4872  136.1122  157.1875 H   0  0  0  0  0  0  0  0  0  0  0  0
  129.4485  132.8607  154.3586 H   0  0  0  0  0  0  0  0  0  0  0  0
  130.1422  131.6026  152.3615 H   0  0  0  0  0  0  0  0  0  0  0  0
  1  2  1  0
  1 33  1  0
  1 34  1  0
  1 35  1  0
  2  3  1  0
  2 36  1  0
  2 37  1  0
  3 32  2  0
  3  4  1  0
  4  5  2  0
  4 38  1  0
  5  6  1  0
  5 39  1  0
  6  7  1  0
  6 31  2  0
  7 29  1  0
  7  8  2  0
  8  9  1  0
  8 40  1  0
  9 10  1  0
  9 11  1  0
 11 12  1  0
 11 29  2  0
 12 13  1  0
 12 41  1  0
 13 14  1  1
 13 15  1  0
 13 23  1  0
 15 16  2  0
 15 42  1  0
 16 17  1  0
 16 43  1  0
 17 22  1  0
 17 18  2  0
 18 19  1  0
 18 44  1  0
 19 20  2  0
 19 45  1  0
 20 21  1  0
 20 46  1  0
 21 22  2  0
 21 47  1  0
 22 48  1  0
 23 28  1  0
 23 24  2  0
 24 25  1  0
 24 49  1  0
 25 26  2  0
 25 50  1  0
 26 27  1  0
 26 51  1  0
 27 28  2  0
 27 52  1  0
 28 53  1  0
 29 30  1  0
 31 32  1  0
 31 54  1  0
 32 55  1  0
M  CHG  1  29   1
M  END
>  <DOCK_score>  (1) 
-61.660194

>  <SMILES>  (1) 
CCc1ccc(-c2c[nH]c(N[C@@H](C=Cc3ccccc3)c3ccccc3)[nH+]2)cc1

$$$$
