Brc1ccc(-c2c[nH]c(N[C@@H](c3ccccc3)c3ccncc3)[nH+]2)cc1
     RDKit          3D

 44 47  0  0  1  0  0  0  0  0999 V2000
  131.3677  129.3632  151.6506 Br  0  0  0  0  0  0  0  0  0  0  0  0
  130.9600  130.3372  153.2193 C   0  0  0  0  0  0  0  0  0  0  0  0
  130.3074  131.5549  153.1245 C   0  0  0  0  0  0  0  0  0  0  0  0
  130.0079  132.2704  154.2657 C   0  0  0  0  0  0  0  0  0  0  0  0
  130.3633  131.7652  155.5152 C   0  0  0  0  0  0  0  0  0  0  0  0
  130.0443  132.5303  156.7454 C   0  0  0  0  0  0  0  0  0  0  0  0
  129.2612  132.1065  157.7682 C   0  0  0  0  0  0  0  0  0  0  0  0
  129.2340  133.1197  158.6956 N   0  0  0  0  0  0  0  0  0  0  0  0
  128.7558  133.1133  159.5396 H   0  0  0  0  0  0  0  0  0  0  0  0
  130.0019  134.1337  158.2119 C   0  0  0  0  0  0  0  0  0  0  0  0
  130.2345  135.3423  158.8459 N   0  0  0  0  0  0  0  0  0  0  0  0
  129.6295  135.6122  160.1525 C   0  0  1  0  0  0  0  0  0  0  0  0
  129.9705  134.8677  160.8717 H   0  0  0  0  0  0  0  0  0  0  0  0
  130.0362  136.9859  160.6203 C   0  0  0  0  0  0  0  0  0  0  0  0
  130.1441  137.2517  161.9726 C   0  0  0  0  0  0  0  0  0  0  0  0
  130.5214  138.5105  162.4015 C   0  0  0  0  0  0  0  0  0  0  0  0
  130.7820  139.5060  161.4785 C   0  0  0  0  0  0  0  0  0  0  0  0
  130.6692  139.2415  160.1264 C   0  0  0  0  0  0  0  0  0  0  0  0
  130.2961  137.9816  159.6973 C   0  0  0  0  0  0  0  0  0  0  0  0
  128.1285  135.5459  160.0345 C   0  0  0  0  0  0  0  0  0  0  0  0
  127.4945  135.8784  158.8470 C   0  0  0  0  0  0  0  0  0  0  0  0
  126.1165  135.8007  158.7746 C   0  0  0  0  0  0  0  0  0  0  0  0
  125.4062  135.4260  159.8206 N   0  0  0  0  0  0  0  0  0  0  0  0
  125.9748  135.1080  160.9671 C   0  0  0  0  0  0  0  0  0  0  0  0
  127.3483  135.1566  161.1125 C   0  0  0  0  0  0  0  0  0  0  0  0
  130.4804  133.7798  157.0441 N   0  0  0  0  0  0  0  0  0  0  0  0
  131.0560  134.3236  156.4839 H   0  0  0  0  0  0  0  0  0  0  0  0
  131.0244  130.5416  155.6045 C   0  0  0  0  0  0  0  0  0  0  0  0
  131.3146  129.8315  154.4574 C   0  0  0  0  0  0  0  0  0  0  0  0
  130.0326  131.9454  152.1557 H   0  0  0  0  0  0  0  0  0  0  0  0
  129.4989  133.2200  154.1909 H   0  0  0  0  0  0  0  0  0  0  0  0
  128.7554  131.1550  157.8397 H   0  0  0  0  0  0  0  0  0  0  0  0
  130.7946  136.0119  158.4231 H   0  0  0  0  0  0  0  0  0  0  0  0
  129.9367  136.4751  162.6938 H   0  0  0  0  0  0  0  0  0  0  0  0
  130.6099  138.7169  163.4579 H   0  0  0  0  0  0  0  0  0  0  0  0
  131.0743  140.4901  161.8139 H   0  0  0  0  0  0  0  0  0  0  0  0
  130.8729  140.0192  159.4053 H   0  0  0  0  0  0  0  0  0  0  0  0
  130.2079  137.7751  158.6409 H   0  0  0  0  0  0  0  0  0  0  0  0
  128.0706  136.1904  157.9883 H   0  0  0  0  0  0  0  0  0  0  0  0
  125.6155  136.0534  157.8519 H   0  0  0  0  0  0  0  0  0  0  0  0
  125.3600  134.8055  161.8020 H   0  0  0  0  0  0  0  0  0  0  0  0
  127.8080  134.8947  162.0540 H   0  0  0  0  0  0  0  0  0  0  0  0
  131.3054  130.1477  156.5700 H   0  0  0  0  0  0  0  0  0  0  0  0
  131.8235  128.8814  154.5256 H   0  0  0  0  0  0  0  0  0  0  0  0
  1  2  1  0
  2 29  2  0
  2  3  1  0
  3  4  2  0
  3 30  1  0
  4  5  1  0
  4 31  1  0
  5  6  1  0
  5 28  2  0
  6 26  1  0
  6  7  2  0
  7  8  1  0
  7 32  1  0
  8  9  1  0
  8 10  1  0
 10 11  1  0
 10 26  2  0
 11 12  1  0
 11 33  1  0
 12 13  1  1
 12 14  1  0
 12 20  1  0
 14 19  1  0
 14 15  2  0
 15 16  1  0
 15 34  1  0
 16 17  2  0
 16 35  1  0
 17 18  1  0
 17 36  1  0
 18 19  2  0
 18 37  1  0
 19 38  1  0
 20 25  1  0
 20 21  2  0
 21 22  1  0
 21 39  1  0
 22 23  2  0
 22 40  1  0
 23 24  1  0
 24 25  2  0
 24 41  1  0
 25 42  1  0
 26 27  1  0
 28 29  1  0
 28 43  1  0
 29 44  1  0
M  CHG  1  26   1
M  END
>  <DOCK_score>  (1) 
-57.792767

>  <SMILES>  (1) 
Brc1ccc(-c2c[nH]c(N[C@@H](c3ccccc3)c3ccncc3)[nH+]2)cc1

$$$$
