CC(C=CSC=CC#N)[NH2+][C@@H](C)c1cnn(-c2ccccc2)c1
     RDKit          3D

 44 45  0  0  1  0  0  0  0  0999 V2000
  133.2548  134.8614  160.0647 C   0  0  0  0  0  0  0  0  0  0  0  0
  131.9160  134.1257  159.9807 C   0  0  1  0  0  0  0  0  0  0  0  0
  131.2619  134.1165  161.3384 C   0  0  0  0  0  0  0  0  0  0  0  0
  130.9878  132.9687  161.9315 C   0  0  0  0  0  0  0  0  0  0  0  0
  130.2232  132.9578  163.5189 S   0  0  0  0  0  0  0  0  0  0  0  0
  128.7273  133.8099  163.1439 C   0  0  0  0  0  0  0  0  0  0  0  0
  128.4308  134.9638  163.7777 C   0  0  0  0  0  0  0  0  0  0  0  0
  127.2149  135.6563  163.4729 C   0  0  0  0  0  0  0  0  0  0  0  0
  126.2505  136.2055  163.2311 N   0  0  0  0  0  0  0  0  0  0  0  0
  131.0404  134.8102  159.0201 N   0  0  0  0  0  0  0  0  0  0  0  0
  130.8841  135.7594  159.3246 H   0  0  0  0  0  0  0  0  0  0  0  0
  131.4784  134.8164  158.1111 H   0  0  0  0  0  0  0  0  0  0  0  0
  129.7550  134.1037  158.9395 C   0  0  1  0  0  0  0  0  0  0  0  0
  129.4530  133.7840  159.9368 H   0  0  0  0  0  0  0  0  0  0  0  0
  128.6932  135.0412  158.3611 C   0  0  0  0  0  0  0  0  0  0  0  0
  129.8998  132.8976  158.0476 C   0  0  0  0  0  0  0  0  0  0  0  0
  129.6849  131.5666  158.4217 C   0  0  0  0  0  0  0  0  0  0  0  0
  129.9054  130.8072  157.3789 N   0  0  0  0  0  0  0  0  0  0  0  0
  130.2775  131.6306  156.3083 N   0  0  0  0  0  0  0  0  0  0  0  0
  130.6027  131.2036  155.0133 C   0  0  0  0  0  0  0  0  0  0  0  0
  130.3485  132.0273  153.9249 C   0  0  0  0  0  0  0  0  0  0  0  0
  130.6755  131.6061  152.6507 C   0  0  0  0  0  0  0  0  0  0  0  0
  131.2449  130.3608  152.4575 C   0  0  0  0  0  0  0  0  0  0  0  0
  131.4941  129.5361  153.5390 C   0  0  0  0  0  0  0  0  0  0  0  0
  131.1746  129.9539  154.8160 C   0  0  0  0  0  0  0  0  0  0  0  0
  130.2662  132.9103  156.7450 C   0  0  0  0  0  0  0  0  0  0  0  0
  133.7279  134.8681  159.0827 H   0  0  0  0  0  0  0  0  0  0  0  0
  133.0860  135.8867  160.3936 H   0  0  0  0  0  0  0  0  0  0  0  0
  133.9045  134.3534  160.7774 H   0  0  0  0  0  0  0  0  0  0  0  0
  132.0848  133.1003  159.6517 H   0  0  0  0  0  0  0  0  0  0  0  0
  131.0174  135.0484  161.8263 H   0  0  0  0  0  0  0  0  0  0  0  0
  131.2324  132.0367  161.4435 H   0  0  0  0  0  0  0  0  0  0  0  0
  128.0475  133.4086  162.4067 H   0  0  0  0  0  0  0  0  0  0  0  0
  129.1105  135.3650  164.5149 H   0  0  0  0  0  0  0  0  0  0  0  0
  127.7394  134.5169  158.3013 H   0  0  0  0  0  0  0  0  0  0  0  0
  128.5884  135.9135  159.0062 H   0  0  0  0  0  0  0  0  0  0  0  0
  128.9952  135.3609  157.3638 H   0  0  0  0  0  0  0  0  0  0  0  0
  129.3856  131.2250  159.4016 H   0  0  0  0  0  0  0  0  0  0  0  0
  129.8997  132.9980  154.0748 H   0  0  0  0  0  0  0  0  0  0  0  0
  130.4821  132.2481  151.8041 H   0  0  0  0  0  0  0  0  0  0  0  0
  131.4959  130.0317  151.4599 H   0  0  0  0  0  0  0  0  0  0  0  0
  131.9392  128.5643  153.3849 H   0  0  0  0  0  0  0  0  0  0  0  0
  131.3697  129.3094  155.6604 H   0  0  0  0  0  0  0  0  0  0  0  0
  130.5066  133.7854  156.1594 H   0  0  0  0  0  0  0  0  0  0  0  0
  1  2  1  0
  1 27  1  0
  1 28  1  0
  1 29  1  0
  2  3  1  0
  2 10  1  0
  2 30  1  6
  3  4  2  0
  3 31  1  0
  4  5  1  0
  4 32  1  0
  5  6  1  0
  6  7  2  0
  6 33  1  0
  7  8  1  0
  7 34  1  0
  8  9  3  0
 10 11  1  0
 10 12  1  0
 10 13  1  0
 13 14  1  1
 13 15  1  0
 13 16  1  0
 15 35  1  0
 15 36  1  0
 15 37  1  0
 16 26  2  0
 16 17  1  0
 17 18  2  0
 17 38  1  0
 18 19  1  0
 19 20  1  0
 19 26  1  0
 20 25  1  0
 20 21  2  0
 21 22  1  0
 21 39  1  0
 22 23  2  0
 22 40  1  0
 23 24  1  0
 23 41  1  0
 24 25  2  0
 24 42  1  0
 25 43  1  0
 26 44  1  0
M  CHG  1  10   1
M  END
>  <DOCK_score>  (1) 
-49.387016

>  <SMILES>  (1) 
CC(C=CSC=CC#N)[NH2+][C@@H](C)c1cnn(-c2ccccc2)c1

$$$$
