Cc1nn(-c2ccc(F)cc2)cc1C[NH2+][C@@H](Cc1c[nH]c2c(C)cccc12)C1CCCCC1
     RDKit          3D

 67 71  0  0  1  0  0  0  0  0999 V2000
  129.8629  132.5735  161.2142 C   0  0  0  0  0  0  0  0  0  0  0  0
  129.9987  132.8861  159.7463 C   0  0  0  0  0  0  0  0  0  0  0  0
  130.2504  132.0202  158.7975 N   0  0  0  0  0  0  0  0  0  0  0  0
  130.3035  132.7089  157.5788 N   0  0  0  0  0  0  0  0  0  0  0  0
  130.5556  132.1423  156.3210 C   0  0  0  0  0  0  0  0  0  0  0  0
  130.5739  132.9449  155.1882 C   0  0  0  0  0  0  0  0  0  0  0  0
  130.8271  132.3860  153.9510 C   0  0  0  0  0  0  0  0  0  0  0  0
  131.0523  131.0242  153.8384 C   0  0  0  0  0  0  0  0  0  0  0  0
  131.2952  130.4784  152.6267 F   0  0  0  0  0  0  0  0  0  0  0  0
  131.0292  130.2213  154.9665 C   0  0  0  0  0  0  0  0  0  0  0  0
  130.7816  130.7774  156.2061 C   0  0  0  0  0  0  0  0  0  0  0  0
  130.0685  134.0166  157.8300 C   0  0  0  0  0  0  0  0  0  0  0  0
  129.8734  134.1514  159.1624 C   0  0  0  0  0  0  0  0  0  0  0  0
  129.5794  135.4382  159.8896 C   0  0  0  0  0  0  0  0  0  0  0  0
  130.8415  136.0697  160.2971 N   0  0  0  0  0  0  0  0  0  0  0  0
  131.3991  136.2654  159.4792 H   0  0  0  0  0  0  0  0  0  0  0  0
  131.3478  135.4462  160.9079 H   0  0  0  0  0  0  0  0  0  0  0  0
  130.5549  137.3240  161.0058 C   0  0  1  0  0  0  0  0  0  0  0  0
  129.7329  137.8414  160.5111 H   0  0  0  0  0  0  0  0  0  0  0  0
  130.1657  137.0148  162.4529 C   0  0  0  0  0  0  0  0  0  0  0  0
  129.4154  138.1861  163.0325 C   0  0  0  0  0  0  0  0  0  0  0  0
  128.0874  138.3794  162.9986 C   0  0  0  0  0  0  0  0  0  0  0  0
  127.7708  139.5530  163.6270 N   0  0  0  0  0  0  0  0  0  0  0  0
  126.8730  139.9057  163.7294 H   0  0  0  0  0  0  0  0  0  0  0  0
  128.9165  140.1588  164.0921 C   0  0  0  0  0  0  0  0  0  0  0  0
  129.1615  141.3399  164.7852 C   0  0  0  0  0  0  0  0  0  0  0  0
  128.0173  142.2413  165.1715 C   0  0  0  0  0  0  0  0  0  0  0  0
  130.4536  141.6826  165.1177 C   0  0  0  0  0  0  0  0  0  0  0  0
  131.5169  140.8632  164.7634 C   0  0  0  0  0  0  0  0  0  0  0  0
  131.2984  139.6960  164.0876 C   0  0  0  0  0  0  0  0  0  0  0  0
  129.9967  139.3293  163.7402 C   0  0  0  0  0  0  0  0  0  0  0  0
  131.7997  138.2137  160.9918 C   0  0  0  0  0  0  0  0  0  0  0  0
  131.9037  138.9237  159.6405 C   0  0  0  0  0  0  0  0  0  0  0  0
  133.1483  139.8134  159.6264 C   0  0  0  0  0  0  0  0  0  0  0  0
  134.3935  138.9522  159.8471 C   0  0  0  0  0  0  0  0  0  0  0  0
  134.2894  138.2421  161.1984 C   0  0  0  0  0  0  0  0  0  0  0  0
  133.0448  137.3525  161.2125 C   0  0  0  0  0  0  0  0  0  0  0  0
  128.8227  132.3397  161.4412 H   0  0  0  0  0  0  0  0  0  0  0  0
  130.4903  131.7175  161.4629 H   0  0  0  0  0  0  0  0  0  0  0  0
  130.1774  133.4369  161.8002 H   0  0  0  0  0  0  0  0  0  0  0  0
  130.3941  134.0063  155.2751 H   0  0  0  0  0  0  0  0  0  0  0  0
  130.8452  133.0107  153.0702 H   0  0  0  0  0  0  0  0  0  0  0  0
  131.2047  129.1593  154.8767 H   0  0  0  0  0  0  0  0  0  0  0  0
  130.7640  130.1510  157.0856 H   0  0  0  0  0  0  0  0  0  0  0  0
  130.0415  134.8108  157.0987 H   0  0  0  0  0  0  0  0  0  0  0  0
  128.9771  135.2267  160.7731 H   0  0  0  0  0  0  0  0  0  0  0  0
  129.0325  136.1116  159.2298 H   0  0  0  0  0  0  0  0  0  0  0  0
  131.0657  136.8331  163.0403 H   0  0  0  0  0  0  0  0  0  0  0  0
  129.5311  136.1289  162.4770 H   0  0  0  0  0  0  0  0  0  0  0  0
  127.3745  137.7084  162.5428 H   0  0  0  0  0  0  0  0  0  0  0  0
  127.8370  142.9618  164.3737 H   0  0  0  0  0  0  0  0  0  0  0  0
  127.1202  141.6424  165.3295 H   0  0  0  0  0  0  0  0  0  0  0  0
  128.2666  142.7715  166.0905 H   0  0  0  0  0  0  0  0  0  0  0  0
  130.6419  142.6001  165.6553 H   0  0  0  0  0  0  0  0  0  0  0  0
  132.5244  141.1485  165.0281 H   0  0  0  0  0  0  0  0  0  0  0  0
  132.1301  139.0615  163.8190 H   0  0  0  0  0  0  0  0  0  0  0  0
  131.7251  138.9554  161.7871 H   0  0  0  0  0  0  0  0  0  0  0  0
  131.9781  138.1821  158.8451 H   0  0  0  0  0  0  0  0  0  0  0  0
  131.0166  139.5374  159.4832 H   0  0  0  0  0  0  0  0  0  0  0  0
  133.0738  140.5551  160.4216 H   0  0  0  0  0  0  0  0  0  0  0  0
  133.2225  140.3193  158.6637 H   0  0  0  0  0  0  0  0  0  0  0  0
  135.2801  139.5860  159.8371 H   0  0  0  0  0  0  0  0  0  0  0  0
  134.4680  138.2106  159.0519 H   0  0  0  0  0  0  0  0  0  0  0  0
  134.2149  138.9838  161.9937 H   0  0  0  0  0  0  0  0  0  0  0  0
  135.1765  137.6286  161.3558 H   0  0  0  0  0  0  0  0  0  0  0  0
  132.9707  136.8466  162.1752 H   0  0  0  0  0  0  0  0  0  0  0  0
  133.1192  136.6107  160.4172 H   0  0  0  0  0  0  0  0  0  0  0  0
  1  2  1  0
  1 38  1  0
  1 39  1  0
  1 40  1  0
  2 13  1  0
  2  3  2  0
  3  4  1  0
  4  5  1  0
  4 12  1  0
  5 11  1  0
  5  6  2  0
  6  7  1  0
  6 41  1  0
  7  8  2  0
  7 42  1  0
  8  9  1  0
  8 10  1  0
 10 11  2  0
 10 43  1  0
 11 44  1  0
 12 13  2  0
 12 45  1  0
 13 14  1  0
 14 15  1  0
 14 46  1  0
 14 47  1  0
 15 16  1  0
 15 17  1  0
 15 18  1  0
 18 19  1  6
 18 20  1  0
 18 32  1  0
 20 21  1  0
 20 48  1  0
 20 49  1  0
 21 31  1  0
 21 22  2  0
 22 23  1  0
 22 50  1  0
 23 24  1  0
 23 25  1  0
 25 31  2  0
 25 26  1  0
 26 27  1  0
 26 28  2  0
 27 51  1  0
 27 52  1  0
 27 53  1  0
 28 29  1  0
 28 54  1  0
 29 30  2  0
 29 55  1  0
 30 31  1  0
 30 56  1  0
 32 37  1  0
 32 33  1  0
 32 57  1  0
 33 34  1  0
 33 58  1  0
 33 59  1  0
 34 35  1  0
 34 60  1  0
 34 61  1  0
 35 36  1  0
 35 62  1  0
 35 63  1  0
 36 37  1  0
 36 64  1  0
 36 65  1  0
 37 66  1  0
 37 67  1  0
M  CHG  1  15   1
M  END
>  <DOCK_score>  (1) 
-46.18512

>  <SMILES>  (1) 
Cc1nn(-c2ccc(F)cc2)cc1C[NH2+][C@@H](Cc1c[nH]c2c(C)cccc12)C1CCCCC1

$$$$
