Nc1ccc(-c2c[nH]c(NC(c3cccc4ccccc34)[C@H](O)C3CCCCCC3)[nH+]2)cc1
     RDKit          3D

 66 70  0  0  1  0  0  0  0  0999 V2000
  130.7155  129.4887  153.4748 N   0  0  0  0  0  0  0  0  0  0  0  0
  130.6820  130.3235  154.5944 C   0  0  0  0  0  0  0  0  0  0  0  0
  129.8688  131.4510  154.5948 C   0  0  0  0  0  0  0  0  0  0  0  0
  129.8347  132.2773  155.6982 C   0  0  0  0  0  0  0  0  0  0  0  0
  130.6164  131.9811  156.8138 C   0  0  0  0  0  0  0  0  0  0  0  0
  130.5814  132.8684  158.0022 C   0  0  0  0  0  0  0  0  0  0  0  0
  130.2136  132.5080  159.2565 C   0  0  0  0  0  0  0  0  0  0  0  0
  130.3326  133.6284  160.0443 N   0  0  0  0  0  0  0  0  0  0  0  0
  130.1436  133.6859  160.9939 H   0  0  0  0  0  0  0  0  0  0  0  0
  130.7609  134.6427  159.2448 C   0  0  0  0  0  0  0  0  0  0  0  0
  131.0032  135.9434  159.6525 N   0  0  0  0  0  0  0  0  0  0  0  0
  130.7991  136.3222  161.0529 C   0  0  2  0  0  0  0  0  0  0  0  0
  129.3606  136.0834  161.4334 C   0  0  0  0  0  0  0  0  0  0  0  0
  128.3789  136.1860  160.4960 C   0  0  0  0  0  0  0  0  0  0  0  0
  127.0435  135.9691  160.8291 C   0  0  0  0  0  0  0  0  0  0  0  0
  126.6816  135.6485  162.1017 C   0  0  0  0  0  0  0  0  0  0  0  0
  127.6671  135.5336  163.0966 C   0  0  0  0  0  0  0  0  0  0  0  0
  127.3324  135.2039  164.4212 C   0  0  0  0  0  0  0  0  0  0  0  0
  128.3142  135.1010  165.3580 C   0  0  0  0  0  0  0  0  0  0  0  0
  129.6500  135.3178  165.0246 C   0  0  0  0  0  0  0  0  0  0  0  0
  130.0116  135.6389  163.7525 C   0  0  0  0  0  0  0  0  0  0  0  0
  129.0258  135.7542  162.7575 C   0  0  0  0  0  0  0  0  0  0  0  0
  131.1356  137.8036  161.2348 C   0  0  2  0  0  0  0  0  0  0  0  0
  130.9837  138.0854  162.2767 H   0  0  0  0  0  0  0  0  0  0  0  0
  130.2849  138.5914  160.3994 O   0  0  0  0  0  0  0  0  0  0  0  0
  132.5960  138.0461  160.8484 C   0  0  0  0  0  0  0  0  0  0  0  0
  133.5039  137.5565  161.9951 C   0  0  0  0  0  0  0  0  0  0  0  0
  134.8828  137.3130  161.4415 C   0  0  0  0  0  0  0  0  0  0  0  0
  135.8088  138.5321  161.6145 C   0  0  0  0  0  0  0  0  0  0  0  0
  135.1019  139.8672  161.3120 C   0  0  0  0  0  0  0  0  0  0  0  0
  134.2140  139.7868  160.0997 C   0  0  0  0  0  0  0  0  0  0  0  0
  132.7794  139.4615  160.5637 C   0  0  0  0  0  0  0  0  0  0  0  0
  130.9119  134.1839  158.0263 N   0  0  0  0  0  0  0  0  0  0  0  0
  131.2119  134.7023  157.2633 H   0  0  0  0  0  0  0  0  0  0  0  0
  131.4353  130.8530  156.8088 C   0  0  0  0  0  0  0  0  0  0  0  0
  131.4619  130.0266  155.7053 C   0  0  0  0  0  0  0  0  0  0  0  0
  130.1713  129.6954  152.6990 H   0  0  0  0  0  0  0  0  0  0  0  0
  131.2828  128.7018  153.4736 H   0  0  0  0  0  0  0  0  0  0  0  0
  129.2635  131.6801  153.7302 H   0  0  0  0  0  0  0  0  0  0  0  0
  129.2026  133.1529  155.6983 H   0  0  0  0  0  0  0  0  0  0  0  0
  129.8931  131.5275  159.5764 H   0  0  0  0  0  0  0  0  0  0  0  0
  131.3080  136.6040  159.0108 H   0  0  0  0  0  0  0  0  0  0  0  0
  131.4480  135.7214  161.6900 H   0  0  0  0  0  0  0  0  0  0  0  0
  128.6390  136.4387  159.4787 H   0  0  0  0  0  0  0  0  0  0  0  0
  126.2840  136.0564  160.0662 H   0  0  0  0  0  0  0  0  0  0  0  0
  125.6430  135.4791  162.3444 H   0  0  0  0  0  0  0  0  0  0  0  0
  126.3016  135.0331  164.6941 H   0  0  0  0  0  0  0  0  0  0  0  0
  128.0543  134.8478  166.3752 H   0  0  0  0  0  0  0  0  0  0  0  0
  130.4097  135.2294  165.7872 H   0  0  0  0  0  0  0  0  0  0  0  0
  131.0508  135.8037  163.5088 H   0  0  0  0  0  0  0  0  0  0  0  0
  130.3671  138.3937  159.4564 H   0  0  0  0  0  0  0  0  0  0  0  0
  132.8227  137.4729  159.9493 H   0  0  0  0  0  0  0  0  0  0  0  0
  133.5498  138.3159  162.7756 H   0  0  0  0  0  0  0  0  0  0  0  0
  133.1064  136.6286  162.4062 H   0  0  0  0  0  0  0  0  0  0  0  0
  134.8012  137.0798  160.3798 H   0  0  0  0  0  0  0  0  0  0  0  0
  135.3241  136.4591  161.9553 H   0  0  0  0  0  0  0  0  0  0  0  0
  136.6601  138.4250  160.9422 H   0  0  0  0  0  0  0  0  0  0  0  0
  136.1731  138.5520  162.6416 H   0  0  0  0  0  0  0  0  0  0  0  0
  135.8564  140.6361  161.1463 H   0  0  0  0  0  0  0  0  0  0  0  0
  134.4968  140.1474  162.1743 H   0  0  0  0  0  0  0  0  0  0  0  0
  134.5714  138.9998  159.4358 H   0  0  0  0  0  0  0  0  0  0  0  0
  134.2216  140.7428  159.5763 H   0  0  0  0  0  0  0  0  0  0  0  0
  132.0799  139.7581  159.7822 H   0  0  0  0  0  0  0  0  0  0  0  0
  132.5619  140.0340  161.4654 H   0  0  0  0  0  0  0  0  0  0  0  0
  132.0454  130.6243  157.6702 H   0  0  0  0  0  0  0  0  0  0  0  0
  132.0930  129.1500  155.7029 H   0  0  0  0  0  0  0  0  0  0  0  0
  1  2  1  0
  1 37  1  0
  1 38  1  0
  2 36  2  0
  2  3  1  0
  3  4  2  0
  3 39  1  0
  4  5  1  0
  4 40  1  0
  5  6  1  0
  5 35  2  0
  6 33  1  0
  6  7  2  0
  7  8  1  0
  7 41  1  0
  8  9  1  0
  8 10  1  0
 10 11  1  0
 10 33  2  0
 11 12  1  0
 11 42  1  0
 12 13  1  0
 12 23  1  0
 12 43  1  1
 13 22  1  0
 13 14  2  0
 14 15  1  0
 14 44  1  0
 15 16  2  0
 15 45  1  0
 16 17  1  0
 16 46  1  0
 17 22  2  0
 17 18  1  0
 18 19  2  0
 18 47  1  0
 19 20  1  0
 19 48  1  0
 20 21  2  0
 20 49  1  0
 21 22  1  0
 21 50  1  0
 23 24  1  1
 23 25  1  0
 23 26  1  0
 25 51  1  0
 26 32  1  0
 26 27  1  0
 26 52  1  0
 27 28  1  0
 27 53  1  0
 27 54  1  0
 28 29  1  0
 28 55  1  0
 28 56  1  0
 29 30  1  0
 29 57  1  0
 29 58  1  0
 30 31  1  0
 30 59  1  0
 30 60  1  0
 31 32  1  0
 31 61  1  0
 31 62  1  0
 32 63  1  0
 32 64  1  0
 33 34  1  0
 35 36  1  0
 35 65  1  0
 36 66  1  0
M  CHG  1  33   1
M  END
>  <DOCK_score>  (1) 
-57.510971

>  <SMILES>  (1) 
Nc1ccc(-c2c[nH]c(NC(c3cccc4ccccc34)[C@H](O)C3CCCCCC3)[nH+]2)cc1

$$$$
