CCCCNc1ccc(-c2n[nH]cc2C[NH2+]Cc2nc(C3=CCC=CC3)cs2)o1
     RDKit          3D

 57 60  0  0  0  0  0  0  0  0999 V2000
  127.7481  140.5619  163.6325 C   0  0  0  0  0  0  0  0  0  0  0  0
  127.9531  139.0655  163.8769 C   0  0  0  0  0  0  0  0  0  0  0  0
  127.0377  138.2668  162.9468 C   0  0  0  0  0  0  0  0  0  0  0  0
  127.2426  136.7703  163.1913 C   0  0  0  0  0  0  0  0  0  0  0  0
  126.3661  136.0056  162.3008 N   0  0  0  0  0  0  0  0  0  0  0  0
  126.9127  135.1138  161.3852 C   0  0  0  0  0  0  0  0  0  0  0  0
  126.2561  134.0865  160.7908 C   0  0  0  0  0  0  0  0  0  0  0  0
  127.1793  133.4449  159.9418 C   0  0  0  0  0  0  0  0  0  0  0  0
  128.3557  134.1150  160.0614 C   0  0  0  0  0  0  0  0  0  0  0  0
  129.6110  133.7933  159.3516 C   0  0  0  0  0  0  0  0  0  0  0  0
  129.7871  132.8078  158.4935 N   0  0  0  0  0  0  0  0  0  0  0  0
  131.1155  132.8488  158.0513 N   0  0  0  0  0  0  0  0  0  0  0  0
  131.5221  132.2404  157.4145 H   0  0  0  0  0  0  0  0  0  0  0  0
  131.7308  133.8856  158.6602 C   0  0  0  0  0  0  0  0  0  0  0  0
  130.8344  134.4856  159.4723 C   0  0  0  0  0  0  0  0  0  0  0  0
  131.0929  135.6851  160.3470 C   0  0  0  0  0  0  0  0  0  0  0  0
  129.9859  136.6407  160.2073 N   0  0  0  0  0  0  0  0  0  0  0  0
  129.9152  136.9351  159.2448 H   0  0  0  0  0  0  0  0  0  0  0  0
  129.1232  136.1991  160.4881 H   0  0  0  0  0  0  0  0  0  0  0  0
  130.2379  137.8100  161.0600 C   0  0  0  0  0  0  0  0  0  0  0  0
  131.5265  138.4692  160.6406 C   0  0  0  0  0  0  0  0  0  0  0  0
  132.6879  138.1756  161.1122 N   0  0  0  0  0  0  0  0  0  0  0  0
  133.7236  138.8528  160.6342 C   0  0  0  0  0  0  0  0  0  0  0  0
  135.1123  138.6216  161.0826 C   0  0  0  0  0  0  0  0  0  0  0  0
  135.3353  137.7070  162.0013 C   0  0  0  0  0  0  0  0  0  0  0  0
  136.7092  137.3961  162.5155 C   0  0  0  0  0  0  0  0  0  0  0  0
  137.6571  138.5241  162.2412 C   0  0  0  0  0  0  0  0  0  0  0  0
  137.4362  139.4302  161.3391 C   0  0  0  0  0  0  0  0  0  0  0  0
  136.2105  139.4432  160.4767 C   0  0  0  0  0  0  0  0  0  0  0  0
  133.3953  139.7719  159.7006 C   0  0  0  0  0  0  0  0  0  0  0  0
  131.6504  139.7058  159.4673 S   0  0  0  0  0  0  0  0  0  0  0  0
  128.1821  135.1212  160.9441 O   0  0  0  0  0  0  0  0  0  0  0  0
  126.7093  140.8239  163.8325 H   0  0  0  0  0  0  0  0  0  0  0  0
  128.4004  141.1309  164.2950 H   0  0  0  0  0  0  0  0  0  0  0  0
  127.9890  140.7971  162.5957 H   0  0  0  0  0  0  0  0  0  0  0  0
  127.7122  138.8303  164.9137 H   0  0  0  0  0  0  0  0  0  0  0  0
  128.9921  138.8036  163.6768 H   0  0  0  0  0  0  0  0  0  0  0  0
  127.2784  138.5019  161.9102 H   0  0  0  0  0  0  0  0  0  0  0  0
  125.9988  138.5287  163.1470 H   0  0  0  0  0  0  0  0  0  0  0  0
  127.0018  136.5352  164.2279 H   0  0  0  0  0  0  0  0  0  0  0  0
  128.2816  136.5085  162.9912 H   0  0  0  0  0  0  0  0  0  0  0  0
  125.4043  136.1215  162.3499 H   0  0  0  0  0  0  0  0  0  0  0  0
  125.2222  133.8125  160.9401 H   0  0  0  0  0  0  0  0  0  0  0  0
  126.9890  132.5852  159.3164 H   0  0  0  0  0  0  0  0  0  0  0  0
  132.7605  134.1815  158.5232 H   0  0  0  0  0  0  0  0  0  0  0  0
  132.0250  136.1620  160.0435 H   0  0  0  0  0  0  0  0  0  0  0  0
  131.1693  135.3671  161.3866 H   0  0  0  0  0  0  0  0  0  0  0  0
  129.4164  138.5190  160.9564 H   0  0  0  0  0  0  0  0  0  0  0  0
  130.3141  137.4918  162.0998 H   0  0  0  0  0  0  0  0  0  0  0  0
  134.4959  137.1553  162.3980 H   0  0  0  0  0  0  0  0  0  0  0  0
  137.0795  136.4924  162.0316 H   0  0  0  0  0  0  0  0  0  0  0  0
  136.6550  137.2285  163.5912 H   0  0  0  0  0  0  0  0  0  0  0  0
  138.5657  138.5860  162.8215 H   0  0  0  0  0  0  0  0  0  0  0  0
  138.1699  140.2109  161.2030 H   0  0  0  0  0  0  0  0  0  0  0  0
  136.4595  139.0386  159.4957 H   0  0  0  0  0  0  0  0  0  0  0  0
  135.8661  140.4709  160.3622 H   0  0  0  0  0  0  0  0  0  0  0  0
  134.0812  140.4280  159.1854 H   0  0  0  0  0  0  0  0  0  0  0  0
  1  2  1  0
  1 33  1  0
  1 34  1  0
  1 35  1  0
  2  3  1  0
  2 36  1  0
  2 37  1  0
  3  4  1  0
  3 38  1  0
  3 39  1  0
  4  5  1  0
  4 40  1  0
  4 41  1  0
  5  6  1  0
  5 42  1  0
  6 32  1  0
  6  7  2  0
  7  8  1  0
  7 43  1  0
  8  9  2  0
  8 44  1  0
  9 10  1  0
  9 32  1  0
 10 15  1  0
 10 11  2  0
 11 12  1  0
 12 13  1  0
 12 14  1  0
 14 15  2  0
 14 45  1  0
 15 16  1  0
 16 17  1  0
 16 46  1  0
 16 47  1  0
 17 18  1  0
 17 19  1  0
 17 20  1  0
 20 21  1  0
 20 48  1  0
 20 49  1  0
 21 31  1  0
 21 22  2  0
 22 23  1  0
 23 24  1  0
 23 30  2  0
 24 29  1  0
 24 25  2  0
 25 26  1  0
 25 50  1  0
 26 27  1  0
 26 51  1  0
 26 52  1  0
 27 28  2  0
 27 53  1  0
 28 29  1  0
 28 54  1  0
 29 55  1  0
 29 56  1  0
 30 31  1  0
 30 57  1  0
M  CHG  1  17   1
M  END
>  <DOCK_score>  (1) 
-42.032539

>  <SMILES>  (1) 
CCCCNc1ccc(-c2n[nH]cc2C[NH2+]Cc2nc(C3=CCC=CC3)cs2)o1

$$$$
