Nc1ccc(-c2c[nH]c(NCc3c[nH]nc3-c3ccc(-c4ccc(F)cc4)cc3)[nH+]2)cc1
     RDKit          3D

 54 58  0  0  1  0  0  0  0  0999 V2000
  130.9384  129.3772  151.4465 N   0  0  0  0  0  0  0  0  0  0  0  0
  130.7860  129.9446  152.7140 C   0  0  0  0  0  0  0  0  0  0  0  0
  129.8171  130.9186  152.9266 C   0  0  0  0  0  0  0  0  0  0  0  0
  129.6654  131.4800  154.1768 C   0  0  0  0  0  0  0  0  0  0  0  0
  130.4842  131.0701  155.2279 C   0  0  0  0  0  0  0  0  0  0  0  0
  130.3228  131.6727  156.5739 C   0  0  0  0  0  0  0  0  0  0  0  0
  130.0141  131.0072  157.7143 C   0  0  0  0  0  0  0  0  0  0  0  0
  129.9702  131.9418  158.7216 N   0  0  0  0  0  0  0  0  0  0  0  0
  129.7769  131.7702  159.6566 H   0  0  0  0  0  0  0  0  0  0  0  0
  130.2447  133.1524  158.1641 C   0  0  0  0  0  0  0  0  0  0  0  0
  130.2958  134.3588  158.8412 N   0  0  0  0  0  0  0  0  0  0  0  0
  130.0416  134.4009  160.2835 C   0  0  0  0  0  0  0  0  0  0  0  0
  128.8570  135.2906  160.5590 C   0  0  0  0  0  0  0  0  0  0  0  0
  127.5647  134.9011  160.6111 C   0  0  0  0  0  0  0  0  0  0  0  0
  126.8118  135.9892  160.8809 N   0  0  0  0  0  0  0  0  0  0  0  0
  125.8465  136.0041  160.9759 H   0  0  0  0  0  0  0  0  0  0  0  0
  127.6669  137.0916  161.0051 N   0  0  0  0  0  0  0  0  0  0  0  0
  128.9005  136.6767  160.8071 C   0  0  0  0  0  0  0  0  0  0  0  0
  130.1212  137.5188  160.8450 C   0  0  0  0  0  0  0  0  0  0  0  0
  130.8064  137.6997  162.0458 C   0  0  0  0  0  0  0  0  0  0  0  0
  131.9397  138.4821  162.0811 C   0  0  0  0  0  0  0  0  0  0  0  0
  132.4019  139.0928  160.9155 C   0  0  0  0  0  0  0  0  0  0  0  0
  133.6218  139.9354  160.9530 C   0  0  0  0  0  0  0  0  0  0  0  0
  134.4385  140.0340  159.8287 C   0  0  0  0  0  0  0  0  0  0  0  0
  135.5720  140.8195  159.8684 C   0  0  0  0  0  0  0  0  0  0  0  0
  135.8992  141.5093  161.0251 C   0  0  0  0  0  0  0  0  0  0  0  0
  137.0106  142.2767  161.0595 F   0  0  0  0  0  0  0  0  0  0  0  0
  135.0929  141.4101  162.1471 C   0  0  0  0  0  0  0  0  0  0  0  0
  133.9544  140.6316  162.1147 C   0  0  0  0  0  0  0  0  0  0  0  0
  131.7137  138.9157  159.7157 C   0  0  0  0  0  0  0  0  0  0  0  0
  130.5830  138.1298  159.6799 C   0  0  0  0  0  0  0  0  0  0  0  0
  130.4583  132.9868  156.8816 N   0  0  0  0  0  0  0  0  0  0  0  0
  130.6780  133.6920  156.2526 H   0  0  0  0  0  0  0  0  0  0  0  0
  131.4587  130.0972  155.0110 C   0  0  0  0  0  0  0  0  0  0  0  0
  131.6030  129.5343  153.7605 C   0  0  0  0  0  0  0  0  0  0  0  0
  130.3681  129.6634  150.7155 H   0  0  0  0  0  0  0  0  0  0  0  0
  131.6141  128.6980  151.2971 H   0  0  0  0  0  0  0  0  0  0  0  0
  129.1830  131.2357  152.1119 H   0  0  0  0  0  0  0  0  0  0  0  0
  128.9126  132.2366  154.3416 H   0  0  0  0  0  0  0  0  0  0  0  0
  129.8403  129.9459  157.8130 H   0  0  0  0  0  0  0  0  0  0  0  0
  130.4999  135.1764  158.3607 H   0  0  0  0  0  0  0  0  0  0  0  0
  130.9192  134.7953  160.7956 H   0  0  0  0  0  0  0  0  0  0  0  0
  129.8317  133.3941  160.6448 H   0  0  0  0  0  0  0  0  0  0  0  0
  127.1982  133.8961  160.4632 H   0  0  0  0  0  0  0  0  0  0  0  0
  130.4484  137.2267  162.9483 H   0  0  0  0  0  0  0  0  0  0  0  0
  132.4700  138.6228  163.0115 H   0  0  0  0  0  0  0  0  0  0  0  0
  134.1847  139.4960  158.9272 H   0  0  0  0  0  0  0  0  0  0  0  0
  136.2055  140.8965  158.9971 H   0  0  0  0  0  0  0  0  0  0  0  0
  135.3541  141.9462  163.0477 H   0  0  0  0  0  0  0  0  0  0  0  0
  133.3246  140.5580  162.9889 H   0  0  0  0  0  0  0  0  0  0  0  0
  132.0692  139.3922  158.8142 H   0  0  0  0  0  0  0  0  0  0  0  0
  130.0522  137.9896  158.7497 H   0  0  0  0  0  0  0  0  0  0  0  0
  132.0973  129.7816  155.8227 H   0  0  0  0  0  0  0  0  0  0  0  0
  132.3550  128.7773  153.5931 H   0  0  0  0  0  0  0  0  0  0  0  0
  1  2  1  0
  1 36  1  0
  1 37  1  0
  2 35  2  0
  2  3  1  0
  3  4  2  0
  3 38  1  0
  4  5  1  0
  4 39  1  0
  5  6  1  0
  5 34  2  0
  6 32  1  0
  6  7  2  0
  7  8  1  0
  7 40  1  0
  8  9  1  0
  8 10  1  0
 10 11  1  0
 10 32  2  0
 11 12  1  0
 11 41  1  0
 12 13  1  0
 12 42  1  0
 12 43  1  0
 13 18  1  0
 13 14  2  0
 14 15  1  0
 14 44  1  0
 15 16  1  0
 15 17  1  0
 17 18  2  0
 18 19  1  0
 19 31  1  0
 19 20  2  0
 20 21  1  0
 20 45  1  0
 21 22  2  0
 21 46  1  0
 22 23  1  0
 22 30  1  0
 23 29  1  0
 23 24  2  0
 24 25  1  0
 24 47  1  0
 25 26  2  0
 25 48  1  0
 26 27  1  0
 26 28  1  0
 28 29  2  0
 28 49  1  0
 29 50  1  0
 30 31  2  0
 30 51  1  0
 31 52  1  0
 32 33  1  0
 34 35  1  0
 34 53  1  0
 35 54  1  0
M  CHG  1  32   1
M  END
>  <DOCK_score>  (1) 
-57.935646

>  <SMILES>  (1) 
Nc1ccc(-c2c[nH]c(NCc3c[nH]nc3-c3ccc(-c4ccc(F)cc4)cc3)[nH+]2)cc1

$$$$
