Nc1ccc(Nc2ccc(Nc3[nH]cc(-c4ccc(C(F)(F)F)cc4)[nH+]3)cc2)cc1
     RDKit          3D

 49 52  0  0  1  0  0  0  0  0999 V2000
  127.6394  135.6525  168.2891 N   0  0  0  0  0  0  0  0  0  0  0  0
  127.3404  135.8930  166.9429 C   0  0  0  0  0  0  0  0  0  0  0  0
  127.8449  135.0531  165.9588 C   0  0  0  0  0  0  0  0  0  0  0  0
  127.5501  135.2901  164.6309 C   0  0  0  0  0  0  0  0  0  0  0  0
  126.7484  136.3686  164.2795 C   0  0  0  0  0  0  0  0  0  0  0  0
  126.4496  136.6094  162.9332 N   0  0  0  0  0  0  0  0  0  0  0  0
  127.3626  136.2436  161.9376 C   0  0  0  0  0  0  0  0  0  0  0  0
  126.9897  135.3389  160.9517 C   0  0  0  0  0  0  0  0  0  0  0  0
  127.8923  134.9735  159.9731 C   0  0  0  0  0  0  0  0  0  0  0  0
  129.1696  135.5190  159.9678 C   0  0  0  0  0  0  0  0  0  0  0  0
  130.0834  135.1522  158.9721 N   0  0  0  0  0  0  0  0  0  0  0  0
  130.0177  133.8916  158.4022 C   0  0  0  0  0  0  0  0  0  0  0  0
  129.5820  132.7618  159.0242 N   0  0  0  0  0  0  0  0  0  0  0  0
  129.2643  132.6953  159.9383 H   0  0  0  0  0  0  0  0  0  0  0  0
  129.6716  131.7343  158.1175 C   0  0  0  0  0  0  0  0  0  0  0  0
  130.1679  132.2629  156.9712 C   0  0  0  0  0  0  0  0  0  0  0  0
  130.4408  131.5227  155.7151 C   0  0  0  0  0  0  0  0  0  0  0  0
  129.7863  131.8785  154.5372 C   0  0  0  0  0  0  0  0  0  0  0  0
  130.0477  131.1893  153.3704 C   0  0  0  0  0  0  0  0  0  0  0  0
  130.9488  130.1407  153.3705 C   0  0  0  0  0  0  0  0  0  0  0  0
  131.2256  129.3874  152.0950 C   0  0  0  0  0  0  0  0  0  0  0  0
  130.4586  129.9297  151.0581 F   0  0  0  0  0  0  0  0  0  0  0  0
  132.5834  129.4940  151.7755 F   0  0  0  0  0  0  0  0  0  0  0  0
  130.8913  128.0398  152.2668 F   0  0  0  0  0  0  0  0  0  0  0  0
  131.5977  129.7792  154.5382 C   0  0  0  0  0  0  0  0  0  0  0  0
  131.3481  130.4648  155.7096 C   0  0  0  0  0  0  0  0  0  0  0  0
  130.3702  133.5883  157.1766 N   0  0  0  0  0  0  0  0  0  0  0  0
  130.7202  134.2121  156.5213 H   0  0  0  0  0  0  0  0  0  0  0  0
  129.5407  136.4278  160.9503 C   0  0  0  0  0  0  0  0  0  0  0  0
  128.6400  136.7891  161.9322 C   0  0  0  0  0  0  0  0  0  0  0  0
  126.2478  137.2114  165.2635 C   0  0  0  0  0  0  0  0  0  0  0  0
  126.5389  136.9713  166.5916 C   0  0  0  0  0  0  0  0  0  0  0  0
  128.1991  134.8991  168.5345 H   0  0  0  0  0  0  0  0  0  0  0  0
  127.2871  136.2392  168.9764 H   0  0  0  0  0  0  0  0  0  0  0  0
  128.4682  134.2144  166.2321 H   0  0  0  0  0  0  0  0  0  0  0  0
  127.9429  134.6374  163.8655 H   0  0  0  0  0  0  0  0  0  0  0  0
  125.6099  137.0299  162.6904 H   0  0  0  0  0  0  0  0  0  0  0  0
  125.9950  134.9181  160.9532 H   0  0  0  0  0  0  0  0  0  0  0  0
  127.6039  134.2667  159.2092 H   0  0  0  0  0  0  0  0  0  0  0  0
  130.7625  135.7810  158.6815 H   0  0  0  0  0  0  0  0  0  0  0  0
  129.4034  130.7020  158.2864 H   0  0  0  0  0  0  0  0  0  0  0  0
  129.0791  132.6948  154.5365 H   0  0  0  0  0  0  0  0  0  0  0  0
  129.5441  131.4668  152.4562 H   0  0  0  0  0  0  0  0  0  0  0  0
  132.3010  128.9595  154.5328 H   0  0  0  0  0  0  0  0  0  0  0  0
  131.8548  130.1818  156.6205 H   0  0  0  0  0  0  0  0  0  0  0  0
  130.5338  136.8521  160.9458 H   0  0  0  0  0  0  0  0  0  0  0  0
  128.9288  137.4957  162.6963 H   0  0  0  0  0  0  0  0  0  0  0  0
  125.6282  138.0526  164.9900 H   0  0  0  0  0  0  0  0  0  0  0  0
  126.1466  137.6244  167.3570 H   0  0  0  0  0  0  0  0  0  0  0  0
  1  2  1  0
  1 33  1  0
  1 34  1  0
  2 32  2  0
  2  3  1  0
  3  4  2  0
  3 35  1  0
  4  5  1  0
  4 36  1  0
  5  6  1  0
  5 31  2  0
  6  7  1  0
  6 37  1  0
  7 30  1  0
  7  8  2  0
  8  9  1  0
  8 38  1  0
  9 10  2  0
  9 39  1  0
 10 11  1  0
 10 29  1  0
 11 40  1  0
 12 11  1  0
 12 27  2  0
 12 13  1  0
 13 14  1  0
 13 15  1  0
 15 16  2  0
 15 41  1  0
 16 17  1  0
 16 27  1  0
 17 26  1  0
 17 18  2  0
 18 19  1  0
 18 42  1  0
 19 20  2  0
 19 43  1  0
 20 21  1  0
 20 25  1  0
 21 22  1  0
 21 23  1  0
 21 24  1  0
 25 26  2  0
 25 44  1  0
 26 45  1  0
 27 28  1  0
 29 30  2  0
 29 46  1  0
 30 47  1  0
 31 32  1  0
 31 48  1  0
 32 49  1  0
M  CHG  1  27   1
M  END
>  <DOCK_score>  (1) 
-54.12796

>  <SMILES>  (1) 
Nc1ccc(Nc2ccc(Nc3[nH]cc(-c4ccc(C(F)(F)F)cc4)[nH+]3)cc2)cc1

$$$$
