CCc1ccc(-c2c[nH]c(N[C@H](C3=COCCC3)C(C)c3ccc(CC)cc3)[nH+]2)cc1
     RDKit          3D

 65 68  0  0  1  0  0  0  0  0999 V2000
  129.6845  128.6052  150.8246 C   0  0  0  0  0  0  0  0  0  0  0  0
  130.8321  129.6054  150.9775 C   0  0  0  0  0  0  0  0  0  0  0  0
  130.8000  130.1991  152.3623 C   0  0  0  0  0  0  0  0  0  0  0  0
  131.4998  129.5916  153.3886 C   0  0  0  0  0  0  0  0  0  0  0  0
  131.4785  130.1339  154.6575 C   0  0  0  0  0  0  0  0  0  0  0  0
  130.7409  131.2898  154.9061 C   0  0  0  0  0  0  0  0  0  0  0  0
  130.7097  131.8744  156.2691 C   0  0  0  0  0  0  0  0  0  0  0  0
  130.2679  131.2566  157.3926 C   0  0  0  0  0  0  0  0  0  0  0  0
  130.4157  132.1517  158.4241 N   0  0  0  0  0  0  0  0  0  0  0  0
  130.1858  131.9996  159.3540 H   0  0  0  0  0  0  0  0  0  0  0  0
  130.9441  133.2913  157.9004 C   0  0  0  0  0  0  0  0  0  0  0  0
  131.2473  134.4401  158.6109 N   0  0  0  0  0  0  0  0  0  0  0  0
  130.4709  134.7908  159.8026 C   0  0  2  0  0  0  0  0  0  0  0  0
  130.5587  133.9938  160.5409 H   0  0  0  0  0  0  0  0  0  0  0  0
  129.0229  134.9681  159.4245 C   0  0  0  0  0  0  0  0  0  0  0  0
  128.1276  134.2011  159.9883 C   0  0  0  0  0  0  0  0  0  0  0  0
  126.8060  134.2782  159.7166 O   0  0  0  0  0  0  0  0  0  0  0  0
  126.3316  135.4521  159.0511 C   0  0  0  0  0  0  0  0  0  0  0  0
  127.2590  135.7384  157.8618 C   0  0  0  0  0  0  0  0  0  0  0  0
  128.6636  136.0170  158.4077 C   0  0  0  0  0  0  0  0  0  0  0  0
  131.0068  136.0959  160.3946 C   0  0  2  0  0  0  0  0  0  0  0  0
  132.2633  135.8045  161.2177 C   0  0  0  0  0  0  0  0  0  0  0  0
  129.9569  136.7131  161.2823 C   0  0  0  0  0  0  0  0  0  0  0  0
  129.4837  136.0182  162.3794 C   0  0  0  0  0  0  0  0  0  0  0  0
  128.5243  136.5865  163.1964 C   0  0  0  0  0  0  0  0  0  0  0  0
  128.0302  137.8453  162.9100 C   0  0  0  0  0  0  0  0  0  0  0  0
  126.9798  138.4622  163.7970 C   0  0  0  0  0  0  0  0  0  0  0  0
  127.6583  139.2623  164.9108 C   0  0  0  0  0  0  0  0  0  0  0  0
  128.4997  138.5382  161.8097 C   0  0  0  0  0  0  0  0  0  0  0  0
  129.4630  137.9722  160.9959 C   0  0  0  0  0  0  0  0  0  0  0  0
  131.1238  133.1197  156.6134 N   0  0  0  0  0  0  0  0  0  0  0  0
  131.4917  133.7787  156.0041 H   0  0  0  0  0  0  0  0  0  0  0  0
  130.0328  131.8951  153.8692 C   0  0  0  0  0  0  0  0  0  0  0  0
  130.0657  131.3470  152.6031 C   0  0  0  0  0  0  0  0  0  0  0  0
  129.7078  128.1759  149.8230 H   0  0  0  0  0  0  0  0  0  0  0  0
  129.7946  127.8111  151.5630 H   0  0  0  0  0  0  0  0  0  0  0  0
  128.7340  129.1157  150.9792 H   0  0  0  0  0  0  0  0  0  0  0  0
  131.7823  129.0955  150.8226 H   0  0  0  0  0  0  0  0  0  0  0  0
  130.7216  130.4003  150.2389 H   0  0  0  0  0  0  0  0  0  0  0  0
  132.0672  128.6932  153.1958 H   0  0  0  0  0  0  0  0  0  0  0  0
  132.0293  129.6612  155.4573 H   0  0  0  0  0  0  0  0  0  0  0  0
  129.8747  130.2532  157.4628 H   0  0  0  0  0  0  0  0  0  0  0  0
  131.9740  135.0128  158.3196 H   0  0  0  0  0  0  0  0  0  0  0  0
  128.4601  133.4713  160.7117 H   0  0  0  0  0  0  0  0  0  0  0  0
  126.3462  136.2966  159.7401 H   0  0  0  0  0  0  0  0  0  0  0  0
  125.3153  135.2872  158.6933 H   0  0  0  0  0  0  0  0  0  0  0  0
  126.8975  136.6090  157.3146 H   0  0  0  0  0  0  0  0  0  0  0  0
  127.2867  134.8731  157.1994 H   0  0  0  0  0  0  0  0  0  0  0  0
  128.6824  137.0003  158.8777 H   0  0  0  0  0  0  0  0  0  0  0  0
  129.3832  135.9915  157.5894 H   0  0  0  0  0  0  0  0  0  0  0  0
  131.2527  136.7868  159.5882 H   0  0  0  0  0  0  0  0  0  0  0  0
  133.0226  135.3579  160.5757 H   0  0  0  0  0  0  0  0  0  0  0  0
  132.6450  136.7342  161.6395 H   0  0  0  0  0  0  0  0  0  0  0  0
  132.0172  135.1137  162.0241 H   0  0  0  0  0  0  0  0  0  0  0  0
  129.8665  135.0327  162.6006 H   0  0  0  0  0  0  0  0  0  0  0  0
  128.1572  136.0450  164.0557 H   0  0  0  0  0  0  0  0  0  0  0  0
  126.3488  139.1257  163.2058 H   0  0  0  0  0  0  0  0  0  0  0  0
  126.3674  137.6749  164.2367 H   0  0  0  0  0  0  0  0  0  0  0  0
  126.8985  139.7085  165.5525 H   0  0  0  0  0  0  0  0  0  0  0  0
  128.2893  138.5987  165.5022 H   0  0  0  0  0  0  0  0  0  0  0  0
  128.2706  140.0496  164.4712 H   0  0  0  0  0  0  0  0  0  0  0  0
  128.1134  139.5217  161.5859 H   0  0  0  0  0  0  0  0  0  0  0  0
  129.8294  138.5133  160.1361 H   0  0  0  0  0  0  0  0  0  0  0  0
  129.4591  132.7908  154.0564 H   0  0  0  0  0  0  0  0  0  0  0  0
  129.5171  131.8149  151.7989 H   0  0  0  0  0  0  0  0  0  0  0  0
  1  2  1  0
  1 35  1  0
  1 36  1  0
  1 37  1  0
  2  3  1  0
  2 38  1  0
  2 39  1  0
  3 34  2  0
  3  4  1  0
  4  5  2  0
  4 40  1  0
  5  6  1  0
  5 41  1  0
  6  7  1  0
  6 33  2  0
  7 31  1  0
  7  8  2  0
  8  9  1  0
  8 42  1  0
  9 10  1  0
  9 11  1  0
 11 12  1  0
 11 31  2  0
 12 13  1  0
 12 43  1  0
 13 14  1  1
 13 15  1  0
 13 21  1  0
 15 20  1  0
 15 16  2  0
 16 17  1  0
 16 44  1  0
 17 18  1  0
 18 19  1  0
 18 45  1  0
 18 46  1  0
 19 20  1  0
 19 47  1  0
 19 48  1  0
 20 49  1  0
 20 50  1  0
 21 22  1  0
 21 23  1  0
 21 51  1  6
 22 52  1  0
 22 53  1  0
 22 54  1  0
 23 30  1  0
 23 24  2  0
 24 25  1  0
 24 55  1  0
 25 26  2  0
 25 56  1  0
 26 27  1  0
 26 29  1  0
 27 28  1  0
 27 57  1  0
 27 58  1  0
 28 59  1  0
 28 60  1  0
 28 61  1  0
 29 30  2  0
 29 62  1  0
 30 63  1  0
 31 32  1  0
 33 34  1  0
 33 64  1  0
 34 65  1  0
M  CHG  1  31   1
M  END
>  <DOCK_score>  (1) 
-58.924377

>  <SMILES>  (1) 
CCc1ccc(-c2c[nH]c(N[C@H](C3=COCCC3)C(C)c3ccc(CC)cc3)[nH+]2)cc1

$$$$
