Cc1ccc(-c2ccc(C[C@H](Nc3[nH]cc(-c4ccc(N)cc4)[nH+]3)C3=CCC3)cc2)cc1
     RDKit          3D

 61 65  0  0  1  0  0  0  0  0999 V2000
  138.7022  137.2765  164.4204 C   0  0  0  0  0  0  0  0  0  0  0  0
  137.3063  137.1969  163.8580 C   0  0  0  0  0  0  0  0  0  0  0  0
  136.9219  138.0555  162.8440 C   0  0  0  0  0  0  0  0  0  0  0  0
  135.6466  137.9831  162.3214 C   0  0  0  0  0  0  0  0  0  0  0  0
  134.7440  137.0465  162.8208 C   0  0  0  0  0  0  0  0  0  0  0  0
  133.3715  136.9636  162.2625 C   0  0  0  0  0  0  0  0  0  0  0  0
  132.3139  136.5426  163.0662 C   0  0  0  0  0  0  0  0  0  0  0  0
  131.0388  136.4716  162.5430 C   0  0  0  0  0  0  0  0  0  0  0  0
  130.8114  136.8080  161.2206 C   0  0  0  0  0  0  0  0  0  0  0  0
  129.4177  136.7236  160.6535 C   0  0  0  0  0  0  0  0  0  0  0  0
  129.1877  135.3274  160.0715 C   0  0  2  0  0  0  0  0  0  0  0  0
  129.3057  134.5819  160.8580 H   0  0  0  0  0  0  0  0  0  0  0  0
  130.1636  135.0745  159.0086 N   0  0  0  0  0  0  0  0  0  0  0  0
  130.1512  133.8678  158.3303 C   0  0  0  0  0  0  0  0  0  0  0  0
  129.7467  132.6742  158.8435 N   0  0  0  0  0  0  0  0  0  0  0  0
  129.4183  132.5169  159.7425 H   0  0  0  0  0  0  0  0  0  0  0  0
  129.8900  131.7323  157.8523 C   0  0  0  0  0  0  0  0  0  0  0  0
  130.3773  132.3777  156.7640 C   0  0  0  0  0  0  0  0  0  0  0  0
  130.6917  131.7614  155.4517 C   0  0  0  0  0  0  0  0  0  0  0  0
  130.5743  132.5111  154.2824 C   0  0  0  0  0  0  0  0  0  0  0  0
  130.8722  131.9377  153.0642 C   0  0  0  0  0  0  0  0  0  0  0  0
  131.2780  130.6100  153.0006 C   0  0  0  0  0  0  0  0  0  0  0  0
  131.5738  130.0295  151.7648 N   0  0  0  0  0  0  0  0  0  0  0  0
  131.3907  129.8590  154.1646 C   0  0  0  0  0  0  0  0  0  0  0  0
  131.0994  130.4299  155.3856 C   0  0  0  0  0  0  0  0  0  0  0  0
  130.5219  133.6875  157.0859 N   0  0  0  0  0  0  0  0  0  0  0  0
  130.8495  134.3800  156.4909 H   0  0  0  0  0  0  0  0  0  0  0  0
  127.7940  135.2428  159.5044 C   0  0  0  0  0  0  0  0  0  0  0  0
  127.3387  135.0002  158.3130 C   0  0  0  0  0  0  0  0  0  0  0  0
  125.9007  135.1230  158.7153 C   0  0  0  0  0  0  0  0  0  0  0  0
  126.4345  135.4018  160.1139 C   0  0  0  0  0  0  0  0  0  0  0  0
  131.8584  137.2221  160.4171 C   0  0  0  0  0  0  0  0  0  0  0  0
  133.1368  137.3014  160.9313 C   0  0  0  0  0  0  0  0  0  0  0  0
  135.1348  136.1875  163.8460 C   0  0  0  0  0  0  0  0  0  0  0  0
  136.4126  136.2687  164.3612 C   0  0  0  0  0  0  0  0  0  0  0  0
  138.7182  137.9776  165.2548 H   0  0  0  0  0  0  0  0  0  0  0  0
  139.0106  136.2907  164.7683 H   0  0  0  0  0  0  0  0  0  0  0  0
  139.3873  137.6190  163.6449 H   0  0  0  0  0  0  0  0  0  0  0  0
  137.6225  138.7809  162.4574 H   0  0  0  0  0  0  0  0  0  0  0  0
  135.3490  138.6510  161.5266 H   0  0  0  0  0  0  0  0  0  0  0  0
  132.4913  136.2753  164.0975 H   0  0  0  0  0  0  0  0  0  0  0  0
  130.2178  136.1488  163.1658 H   0  0  0  0  0  0  0  0  0  0  0  0
  128.6916  136.9117  161.4444 H   0  0  0  0  0  0  0  0  0  0  0  0
  129.2996  137.4690  159.8671 H   0  0  0  0  0  0  0  0  0  0  0  0
  130.8185  135.7527  158.7801 H   0  0  0  0  0  0  0  0  0  0  0  0
  129.6587  130.6799  157.9264 H   0  0  0  0  0  0  0  0  0  0  0  0
  130.2544  133.5414  154.3308 H   0  0  0  0  0  0  0  0  0  0  0  0
  130.7857  132.5194  152.1584 H   0  0  0  0  0  0  0  0  0  0  0  0
  131.8574  129.1029  151.7196 H   0  0  0  0  0  0  0  0  0  0  0  0
  131.4953  130.5529  150.9519 H   0  0  0  0  0  0  0  0  0  0  0  0
  131.7063  128.8275  154.1128 H   0  0  0  0  0  0  0  0  0  0  0  0
  131.1874  129.8462  156.2900 H   0  0  0  0  0  0  0  0  0  0  0  0
  127.8224  134.7865  157.3713 H   0  0  0  0  0  0  0  0  0  0  0  0
  125.3865  135.9692  158.2595 H   0  0  0  0  0  0  0  0  0  0  0  0
  125.3402  134.1915  158.6370 H   0  0  0  0  0  0  0  0  0  0  0  0
  126.1853  134.6303  160.8423 H   0  0  0  0  0  0  0  0  0  0  0  0
  126.2274  136.4105  160.4714 H   0  0  0  0  0  0  0  0  0  0  0  0
  131.6752  137.4836  159.3853 H   0  0  0  0  0  0  0  0  0  0  0  0
  133.9535  137.6248  160.3030 H   0  0  0  0  0  0  0  0  0  0  0  0
  134.4391  135.4599  164.2370 H   0  0  0  0  0  0  0  0  0  0  0  0
  136.7167  135.6035  165.1558 H   0  0  0  0  0  0  0  0  0  0  0  0
  1  2  1  0
  1 36  1  0
  1 37  1  0
  1 38  1  0
  2 35  2  0
  2  3  1  0
  3  4  2  0
  3 39  1  0
  4  5  1  0
  4 40  1  0
  5  6  1  0
  5 34  2  0
  6 33  1  0
  6  7  2  0
  7  8  1  0
  7 41  1  0
  8  9  2  0
  8 42  1  0
  9 10  1  0
  9 32  1  0
 10 11  1  0
 10 43  1  0
 10 44  1  0
 11 12  1  1
 11 13  1  0
 11 28  1  0
 13 45  1  0
 14 13  1  0
 14 26  2  0
 14 15  1  0
 15 16  1  0
 15 17  1  0
 17 18  2  0
 17 46  1  0
 18 19  1  0
 18 26  1  0
 19 25  1  0
 19 20  2  0
 20 21  1  0
 20 47  1  0
 21 22  2  0
 21 48  1  0
 22 23  1  0
 22 24  1  0
 23 49  1  0
 23 50  1  0
 24 25  2  0
 24 51  1  0
 25 52  1  0
 26 27  1  0
 28 31  1  0
 28 29  2  0
 29 30  1  0
 29 53  1  0
 30 31  1  0
 30 54  1  0
 30 55  1  0
 31 56  1  0
 31 57  1  0
 32 33  2  0
 32 58  1  0
 33 59  1  0
 34 35  1  0
 34 60  1  0
 35 61  1  0
M  CHG  1  26   1
M  END
>  <DOCK_score>  (1) 
-63.149105

>  <SMILES>  (1) 
Cc1ccc(-c2ccc(C[C@H](Nc3[nH]cc(-c4ccc(N)cc4)[nH+]3)C3=CCC3)cc2)cc1

$$$$
