Cc1cc(O)ccc1Nc1[nH]cc(-c2ccc(F)cc2)[nH+]1
     RDKit          3D

 36 38  0  0  1  0  0  0  0  0999 V2000
  127.5110  135.5477  157.9793 C   0  0  0  0  0  0  0  0  0  0  0  0
  127.8938  135.7836  159.4177 C   0  0  0  0  0  0  0  0  0  0  0  0
  126.9367  136.1799  160.3312 C   0  0  0  0  0  0  0  0  0  0  0  0
  127.2903  136.4023  161.6542 C   0  0  0  0  0  0  0  0  0  0  0  0
  126.3480  136.7978  162.5516 O   0  0  0  0  0  0  0  0  0  0  0  0
  128.6039  136.2231  162.0614 C   0  0  0  0  0  0  0  0  0  0  0  0
  129.5612  135.8224  161.1504 C   0  0  0  0  0  0  0  0  0  0  0  0
  129.2080  135.5986  159.8259 C   0  0  0  0  0  0  0  0  0  0  0  0
  130.1779  135.1922  158.9015 N   0  0  0  0  0  0  0  0  0  0  0  0
  130.0341  133.9889  158.2308 C   0  0  0  0  0  0  0  0  0  0  0  0
  129.4049  132.8825  158.7134 N   0  0  0  0  0  0  0  0  0  0  0  0
  128.9804  132.7954  159.5811 H   0  0  0  0  0  0  0  0  0  0  0  0
  129.4828  131.9117  157.7444 C   0  0  0  0  0  0  0  0  0  0  0  0
  130.1515  132.4541  156.6966 C   0  0  0  0  0  0  0  0  0  0  0  0
  130.4685  131.7740  155.4169 C   0  0  0  0  0  0  0  0  0  0  0  0
  129.9838  132.2858  154.2146 C   0  0  0  0  0  0  0  0  0  0  0  0
  130.2851  131.6525  153.0263 C   0  0  0  0  0  0  0  0  0  0  0  0
  131.0592  130.5041  153.0278 C   0  0  0  0  0  0  0  0  0  0  0  0
  131.3478  129.8847  151.8623 F   0  0  0  0  0  0  0  0  0  0  0  0
  131.5389  129.9883  154.2214 C   0  0  0  0  0  0  0  0  0  0  0  0
  131.2470  130.6179  155.4140 C   0  0  0  0  0  0  0  0  0  0  0  0
  130.4818  133.7275  157.0268 N   0  0  0  0  0  0  0  0  0  0  0  0
  130.9681  134.3471  156.4608 H   0  0  0  0  0  0  0  0  0  0  0  0
  127.2130  134.5074  157.8486 H   0  0  0  0  0  0  0  0  0  0  0  0
  126.6793  136.2000  157.7131 H   0  0  0  0  0  0  0  0  0  0  0  0
  128.3636  135.7651  157.3361 H   0  0  0  0  0  0  0  0  0  0  0  0
  125.9136  136.3199  160.0148 H   0  0  0  0  0  0  0  0  0  0  0  0
  125.4628  136.8963  162.1751 H   0  0  0  0  0  0  0  0  0  0  0  0
  128.8783  136.3971  163.0914 H   0  0  0  0  0  0  0  0  0  0  0  0
  130.5840  135.6833  161.4676 H   0  0  0  0  0  0  0  0  0  0  0  0
  130.9505  135.7531  158.7309 H   0  0  0  0  0  0  0  0  0  0  0  0
  129.0836  130.9099  157.8037 H   0  0  0  0  0  0  0  0  0  0  0  0
  129.3765  133.1787  154.2127 H   0  0  0  0  0  0  0  0  0  0  0  0
  129.9135  132.0507  152.0937 H   0  0  0  0  0  0  0  0  0  0  0  0
  132.1419  129.0923  154.2181 H   0  0  0  0  0  0  0  0  0  0  0  0
  131.6216  130.2158  156.3437 H   0  0  0  0  0  0  0  0  0  0  0  0
  1  2  1  0
  1 24  1  0
  1 25  1  0
  1 26  1  0
  2  8  2  0
  2  3  1  0
  3  4  2  0
  3 27  1  0
  4  5  1  0
  4  6  1  0
  5 28  1  0
  6  7  2  0
  6 29  1  0
  7  8  1  0
  7 30  1  0
  8  9  1  0
  9 31  1  0
 10  9  1  0
 10 22  2  0
 10 11  1  0
 11 12  1  0
 11 13  1  0
 13 14  2  0
 13 32  1  0
 14 15  1  0
 14 22  1  0
 15 21  1  0
 15 16  2  0
 16 17  1  0
 16 33  1  0
 17 18  2  0
 17 34  1  0
 18 19  1  0
 18 20  1  0
 20 21  2  0
 20 35  1  0
 21 36  1  0
 22 23  1  0
M  CHG  1  22   1
M  END
>  <DOCK_score>  (1) 
-51.757347

>  <SMILES>  (1) 
Cc1cc(O)ccc1Nc1[nH]cc(-c2ccc(F)cc2)[nH+]1

$$$$
