O[C@@H]1C=CC(=CC([NH2+]Cc2ccccc2)c2cc3cc(Cl)ccc3[nH]2)C1
     RDKit          3D

 48 51  0  0  1  0  0  0  0  0999 V2000
  124.9686  135.2010  161.7726 O   0  0  0  0  0  0  0  0  0  0  0  0
  125.4906  134.4888  160.6491 C   0  0  2  0  0  0  0  0  0  0  0  0
  124.6785  134.1682  159.9967 H   0  0  0  0  0  0  0  0  0  0  0  0
  126.2895  133.2972  161.1132 C   0  0  0  0  0  0  0  0  0  0  0  0
  127.5422  133.3904  160.7103 C   0  0  0  0  0  0  0  0  0  0  0  0
  127.7890  134.6186  159.9456 C   0  0  0  0  0  0  0  0  0  0  0  0
  128.9465  134.9946  159.4126 C   0  0  0  0  0  0  0  0  0  0  0  0
  130.1339  134.0678  159.4589 C   0  0  1  0  0  0  0  0  0  0  0  0
  130.5717  133.7639  158.0900 N   0  0  0  0  0  0  0  0  0  0  0  0
  130.5155  134.5986  157.5259 H   0  0  0  0  0  0  0  0  0  0  0  0
  131.5247  133.4332  158.1073 H   0  0  0  0  0  0  0  0  0  0  0  0
  129.7036  132.7263  157.5173 C   0  0  0  0  0  0  0  0  0  0  0  0
  130.1527  132.4146  156.1129 C   0  0  0  0  0  0  0  0  0  0  0  0
  129.6212  133.1144  155.0459 C   0  0  0  0  0  0  0  0  0  0  0  0
  130.0364  132.8314  153.7581 C   0  0  0  0  0  0  0  0  0  0  0  0
  130.9763  131.8423  153.5365 C   0  0  0  0  0  0  0  0  0  0  0  0
  131.5040  131.1388  154.6032 C   0  0  0  0  0  0  0  0  0  0  0  0
  131.0921  131.4248  155.8914 C   0  0  0  0  0  0  0  0  0  0  0  0
  131.2594  134.7305  160.2108 C   0  0  0  0  0  0  0  0  0  0  0  0
  131.4614  134.6379  161.5346 C   0  0  0  0  0  0  0  0  0  0  0  0
  132.6556  135.4287  161.8420 C   0  0  0  0  0  0  0  0  0  0  0  0
  133.3544  135.7143  163.0168 C   0  0  0  0  0  0  0  0  0  0  0  0
  134.4733  136.4984  162.9672 C   0  0  0  0  0  0  0  0  0  0  0  0
  135.3445  136.8498  164.4271 Cl  0  0  0  0  0  0  0  0  0  0  0  0
  134.9140  137.0225  161.7584 C   0  0  0  0  0  0  0  0  0  0  0  0
  134.2366  136.7565  160.5889 C   0  0  0  0  0  0  0  0  0  0  0  0
  133.0997  135.9548  160.6155 C   0  0  0  0  0  0  0  0  0  0  0  0
  132.2264  135.5160  159.6451 N   0  0  0  0  0  0  0  0  0  0  0  0
  132.2899  135.7286  158.7009 H   0  0  0  0  0  0  0  0  0  0  0  0
  126.4794  135.3746  159.8709 C   0  0  0  0  0  0  0  0  0  0  0  0
  124.4935  136.0102  161.5392 H   0  0  0  0  0  0  0  0  0  0  0  0
  125.8899  132.4777  161.6921 H   0  0  0  0  0  0  0  0  0  0  0  0
  128.2994  132.6497  160.9211 H   0  0  0  0  0  0  0  0  0  0  0  0
  129.0363  135.9644  158.9460 H   0  0  0  0  0  0  0  0  0  0  0  0
  129.8539  133.1436  159.9646 H   0  0  0  0  0  0  0  0  0  0  0  0
  129.7645  131.8247  158.1268 H   0  0  0  0  0  0  0  0  0  0  0  0
  128.6740  133.0835  157.4987 H   0  0  0  0  0  0  0  0  0  0  0  0
  128.8843  133.8847  155.2187 H   0  0  0  0  0  0  0  0  0  0  0  0
  129.6245  133.3813  152.9249 H   0  0  0  0  0  0  0  0  0  0  0  0
  131.2988  131.6194  152.5303 H   0  0  0  0  0  0  0  0  0  0  0  0
  132.2383  130.3660  154.4301 H   0  0  0  0  0  0  0  0  0  0  0  0
  131.5042  130.8752  156.7247 H   0  0  0  0  0  0  0  0  0  0  0  0
  130.8582  134.0849  162.2394 H   0  0  0  0  0  0  0  0  0  0  0  0
  133.0182  135.3085  163.9596 H   0  0  0  0  0  0  0  0  0  0  0  0
  135.7962  137.6449  161.7354 H   0  0  0  0  0  0  0  0  0  0  0  0
  134.5867  137.1690  159.6542 H   0  0  0  0  0  0  0  0  0  0  0  0
  126.5743  136.3505  160.3471 H   0  0  0  0  0  0  0  0  0  0  0  0
  126.1602  135.4838  158.8345 H   0  0  0  0  0  0  0  0  0  0  0  0
  1  2  1  0
  1 31  1  0
  2  3  1  6
  2 30  1  0
  2  4  1  0
  4  5  2  0
  4 32  1  0
  5  6  1  0
  5 33  1  0
  6  7  2  0
  6 30  1  0
  7  8  1  0
  7 34  1  0
  8  9  1  0
  8 19  1  0
  8 35  1  1
  9 10  1  0
  9 11  1  0
  9 12  1  0
 12 13  1  0
 12 36  1  0
 12 37  1  0
 13 18  1  0
 13 14  2  0
 14 15  1  0
 14 38  1  0
 15 16  2  0
 15 39  1  0
 16 17  1  0
 16 40  1  0
 17 18  2  0
 17 41  1  0
 18 42  1  0
 19 28  1  0
 19 20  2  0
 20 21  1  0
 20 43  1  0
 21 27  2  0
 21 22  1  0
 22 23  2  0
 22 44  1  0
 23 24  1  0
 23 25  1  0
 25 26  2  0
 25 45  1  0
 26 27  1  0
 26 46  1  0
 27 28  1  0
 28 29  1  0
 30 47  1  0
 30 48  1  0
M  CHG  1   9   1
M  END
>  <DOCK_score>  (1) 
-49.859989

>  <SMILES>  (1) 
O[C@@H]1C=CC(=CC([NH2+]Cc2ccccc2)c2cc3cc(Cl)ccc3[nH]2)C1

$$$$
