C1=C[C@@H]2C=C(C(c3ccccc3)[NH+]3CCN(c4ccccc4Oc4cccc5ccccc45)CC3)C1CC2
     RDKit          3D

 73 79  0  0  1  0  0  0  0  0999 V2000
  131.2345  131.1510  160.5841 C   0  0  0  0  0  0  0  0  0  0  0  0
  132.0307  131.0151  159.5241 C   0  0  0  0  0  0  0  0  0  0  0  0
  131.4972  131.6942  158.2658 C   0  0  2  0  0  0  0  0  0  0  0  0
  132.1913  131.6117  157.4294 H   0  0  0  0  0  0  0  0  0  0  0  0
  131.2249  133.1471  158.6454 C   0  0  0  0  0  0  0  0  0  0  0  0
  130.4323  133.2828  159.7089 C   0  0  0  0  0  0  0  0  0  0  0  0
  130.0272  134.6216  160.2696 C   0  0  2  0  0  0  0  0  0  0  0  0
  128.7537  135.0794  159.6065 C   0  0  0  0  0  0  0  0  0  0  0  0
  128.8095  135.8386  158.4527 C   0  0  0  0  0  0  0  0  0  0  0  0
  127.6412  136.2578  157.8440 C   0  0  0  0  0  0  0  0  0  0  0  0
  126.4173  135.9176  158.3890 C   0  0  0  0  0  0  0  0  0  0  0  0
  126.3616  135.1631  159.5458 C   0  0  0  0  0  0  0  0  0  0  0  0
  127.5297  134.7400  160.1520 C   0  0  0  0  0  0  0  0  0  0  0  0
  131.0915  135.6016  160.0148 N   0  0  0  0  0  0  0  0  0  0  0  0
  131.2409  135.6847  159.0205 H   0  0  0  0  0  0  0  0  0  0  0  0
  132.3327  135.1548  160.6607 C   0  0  0  0  0  0  0  0  0  0  0  0
  133.4467  136.1657  160.3795 C   0  0  0  0  0  0  0  0  0  0  0  0
  133.0511  137.4828  160.8983 N   0  0  0  0  0  0  0  0  0  0  0  0
  134.0694  138.4234  160.7074 C   0  0  0  0  0  0  0  0  0  0  0  0
  133.8347  139.5572  159.9434 C   0  0  0  0  0  0  0  0  0  0  0  0
  134.8408  140.4874  159.7607 C   0  0  0  0  0  0  0  0  0  0  0  0
  136.0853  140.2855  160.3284 C   0  0  0  0  0  0  0  0  0  0  0  0
  136.3283  139.1552  161.0868 C   0  0  0  0  0  0  0  0  0  0  0  0
  135.3238  138.2208  161.2796 C   0  0  0  0  0  0  0  0  0  0  0  0
  135.5614  137.1085  162.0249 O   0  0  0  0  0  0  0  0  0  0  0  0
  135.3180  137.1713  163.3591 C   0  0  0  0  0  0  0  0  0  0  0  0
  134.8395  138.3324  163.9239 C   0  0  0  0  0  0  0  0  0  0  0  0
  134.5864  138.4078  165.2905 C   0  0  0  0  0  0  0  0  0  0  0  0
  134.8047  137.3392  166.1054 C   0  0  0  0  0  0  0  0  0  0  0  0
  135.2926  136.1361  165.5683 C   0  0  0  0  0  0  0  0  0  0  0  0
  135.5280  135.0165  166.3851 C   0  0  0  0  0  0  0  0  0  0  0  0
  136.0014  133.8667  165.8317 C   0  0  0  0  0  0  0  0  0  0  0  0
  136.2577  133.7811  164.4647 C   0  0  0  0  0  0  0  0  0  0  0  0
  136.0419  134.8454  163.6435 C   0  0  0  0  0  0  0  0  0  0  0  0
  135.5476  136.0462  164.1775 C   0  0  0  0  0  0  0  0  0  0  0  0
  131.7962  137.9322  160.2791 C   0  0  0  0  0  0  0  0  0  0  0  0
  130.6960  136.9066  160.5609 C   0  0  0  0  0  0  0  0  0  0  0  0
  129.9686  131.9549  160.3010 C   0  0  1  0  0  0  0  0  0  0  0  0
  129.1992  131.2198  159.1890 C   0  0  0  0  0  0  0  0  0  0  0  0
  130.1368  131.0441  157.9557 C   0  0  0  0  0  0  0  0  0  0  0  0
  131.4640  130.7319  161.5526 H   0  0  0  0  0  0  0  0  0  0  0  0
  132.9656  130.4754  159.5527 H   0  0  0  0  0  0  0  0  0  0  0  0
  131.6371  133.9862  158.1049 H   0  0  0  0  0  0  0  0  0  0  0  0
  129.8655  134.5318  161.3437 H   0  0  0  0  0  0  0  0  0  0  0  0
  129.7657  136.1038  158.0263 H   0  0  0  0  0  0  0  0  0  0  0  0
  127.6847  136.8508  156.9424 H   0  0  0  0  0  0  0  0  0  0  0  0
  125.5046  136.2450  157.9135 H   0  0  0  0  0  0  0  0  0  0  0  0
  125.4054  134.9009  159.9742 H   0  0  0  0  0  0  0  0  0  0  0  0
  127.4861  134.1468  161.0534 H   0  0  0  0  0  0  0  0  0  0  0  0
  132.1751  135.0775  161.7364 H   0  0  0  0  0  0  0  0  0  0  0  0
  132.6182  134.1804  160.2643 H   0  0  0  0  0  0  0  0  0  0  0  0
  133.6137  136.2335  159.3045 H   0  0  0  0  0  0  0  0  0  0  0  0
  134.3644  135.8421  160.8705 H   0  0  0  0  0  0  0  0  0  0  0  0
  132.8651  139.7151  159.4948 H   0  0  0  0  0  0  0  0  0  0  0  0
  134.6556  141.3720  159.1694 H   0  0  0  0  0  0  0  0  0  0  0  0
  136.8695  141.0128  160.1791 H   0  0  0  0  0  0  0  0  0  0  0  0
  137.3016  139.0007  161.5287 H   0  0  0  0  0  0  0  0  0  0  0  0
  134.6579  139.1944  163.2991 H   0  0  0  0  0  0  0  0  0  0  0  0
  134.2112  139.3290  165.7113 H   0  0  0  0  0  0  0  0  0  0  0  0
  134.6032  137.4163  167.1638 H   0  0  0  0  0  0  0  0  0  0  0  0
  135.3339  135.0682  167.4463 H   0  0  0  0  0  0  0  0  0  0  0  0
  136.1814  133.0080  166.4615 H   0  0  0  0  0  0  0  0  0  0  0  0
  136.6334  132.8571  164.0506 H   0  0  0  0  0  0  0  0  0  0  0  0
  136.2453  134.7649  162.5860 H   0  0  0  0  0  0  0  0  0  0  0  0
  131.9361  138.0291  159.2025 H   0  0  0  0  0  0  0  0  0  0  0  0
  131.5094  138.8972  160.6969 H   0  0  0  0  0  0  0  0  0  0  0  0
  129.7678  137.2310  160.0904 H   0  0  0  0  0  0  0  0  0  0  0  0
  130.5469  136.8200  161.6371 H   0  0  0  0  0  0  0  0  0  0  0  0
  129.3623  132.0941  161.1961 H   0  0  0  0  0  0  0  0  0  0  0  0
  128.8978  130.2348  159.5458 H   0  0  0  0  0  0  0  0  0  0  0  0
  128.3136  131.7949  158.9189 H   0  0  0  0  0  0  0  0  0  0  0  0
  129.6851  131.5393  157.0961 H   0  0  0  0  0  0  0  0  0  0  0  0
  130.2819  129.9874  157.7314 H   0  0  0  0  0  0  0  0  0  0  0  0
  1 38  1  0
  1  2  2  0
  1 41  1  0
  2  3  1  0
  2 42  1  0
  3  4  1  6
  3 40  1  0
  3  5  1  0
  5  6  2  0
  5 43  1  0
  6  7  1  0
  6 38  1  0
  7  8  1  0
  7 14  1  0
  7 44  1  1
  8 13  1  0
  8  9  2  0
  9 10  1  0
  9 45  1  0
 10 11  2  0
 10 46  1  0
 11 12  1  0
 11 47  1  0
 12 13  2  0
 12 48  1  0
 13 49  1  0
 14 15  1  0
 14 37  1  0
 14 16  1  0
 16 17  1  0
 16 50  1  0
 16 51  1  0
 17 18  1  0
 17 52  1  0
 17 53  1  0
 18 19  1  0
 18 36  1  0
 19 24  1  0
 19 20  2  0
 20 21  1  0
 20 54  1  0
 21 22  2  0
 21 55  1  0
 22 23  1  0
 22 56  1  0
 23 24  2  0
 23 57  1  0
 24 25  1  0
 25 26  1  0
 26 35  1  0
 26 27  2  0
 27 28  1  0
 27 58  1  0
 28 29  2  0
 28 59  1  0
 29 30  1  0
 29 60  1  0
 30 35  2  0
 30 31  1  0
 31 32  2  0
 31 61  1  0
 32 33  1  0
 32 62  1  0
 33 34  2  0
 33 63  1  0
 34 35  1  0
 34 64  1  0
 36 37  1  0
 36 65  1  0
 36 66  1  0
 37 67  1  0
 37 68  1  0
 38 39  1  0
 38 69  1  1
 39 40  1  0
 39 70  1  0
 39 71  1  0
 40 72  1  0
 40 73  1  0
M  CHG  1  14   1
M  END
>  <DOCK_score>  (1) 
-56.467365

>  <SMILES>  (1) 
C1=C[C@@H]2C=C(C(c3ccccc3)[NH+]3CCN(c4ccccc4Oc4cccc5ccccc45)CC3)C1CC2

$$$$
