CC1=C(c2ccc(C[NH+]3CCN([C@@H](Cc4ccc(F)cc4)C(F)F)CC3)cc2)CCC1
     RDKit          3D

 63 66  0  0  1  0  0  0  0  0999 V2000
  134.7608  140.1534  162.7682 C   0  0  0  0  0  0  0  0  0  0  0  0
  135.3912  140.2395  161.4021 C   0  0  0  0  0  0  0  0  0  0  0  0
  134.9143  139.6537  160.3176 C   0  0  0  0  0  0  0  0  0  0  0  0
  133.6907  138.8251  160.2807 C   0  0  0  0  0  0  0  0  0  0  0  0
  132.6212  139.1913  159.4627 C   0  0  0  0  0  0  0  0  0  0  0  0
  131.4798  138.4165  159.4369 C   0  0  0  0  0  0  0  0  0  0  0  0
  131.3988  137.2729  160.2111 C   0  0  0  0  0  0  0  0  0  0  0  0
  130.1511  136.4285  160.1738 C   0  0  0  0  0  0  0  0  0  0  0  0
  130.2791  135.4118  159.1211 N   0  0  0  0  0  0  0  0  0  0  0  0
  130.7215  135.8202  158.3115 H   0  0  0  0  0  0  0  0  0  0  0  0
  128.9456  134.9179  158.7532 C   0  0  0  0  0  0  0  0  0  0  0  0
  129.0770  133.8727  157.6432 C   0  0  0  0  0  0  0  0  0  0  0  0
  129.9157  132.7626  158.1167 N   0  0  0  0  0  0  0  0  0  0  0  0
  130.0197  131.7096  157.0978 C   0  0  1  0  0  0  0  0  0  0  0  0
  129.0515  131.5731  156.6161 H   0  0  0  0  0  0  0  0  0  0  0  0
  131.0581  132.1148  156.0498 C   0  0  0  0  0  0  0  0  0  0  0  0
  130.8312  131.3254  154.7863 C   0  0  0  0  0  0  0  0  0  0  0  0
  131.4695  130.1124  154.6058 C   0  0  0  0  0  0  0  0  0  0  0  0
  131.2578  129.3848  153.4500 C   0  0  0  0  0  0  0  0  0  0  0  0
  130.4152  129.8768  152.4676 C   0  0  0  0  0  0  0  0  0  0  0  0
  130.2124  129.1694  151.3346 F   0  0  0  0  0  0  0  0  0  0  0  0
  129.7809  131.0943  152.6470 C   0  0  0  0  0  0  0  0  0  0  0  0
  129.9894  131.8173  153.8063 C   0  0  0  0  0  0  0  0  0  0  0  0
  130.4487  130.3990  157.7606 C   0  0  0  0  0  0  0  0  0  0  0  0
  131.8315  130.4146  157.9729 F   0  0  0  0  0  0  0  0  0  0  0  0
  129.7903  130.2594  158.9872 F   0  0  0  0  0  0  0  0  0  0  0  0
  131.2462  133.2457  158.5125 C   0  0  0  0  0  0  0  0  0  0  0  0
  131.0970  134.2962  159.6152 C   0  0  0  0  0  0  0  0  0  0  0  0
  132.4559  136.9042  161.0237 C   0  0  0  0  0  0  0  0  0  0  0  0
  133.6006  137.6735  161.0632 C   0  0  0  0  0  0  0  0  0  0  0  0
  135.7927  139.9400  159.1218 C   0  0  0  0  0  0  0  0  0  0  0  0
  136.6542  141.1529  159.5479 C   0  0  0  0  0  0  0  0  0  0  0  0
  136.6539  141.0075  161.0869 C   0  0  0  0  0  0  0  0  0  0  0  0
  135.1687  139.2959  163.3033 H   0  0  0  0  0  0  0  0  0  0  0  0
  134.9756  141.0653  163.3255 H   0  0  0  0  0  0  0  0  0  0  0  0
  133.6822  140.0370  162.6638 H   0  0  0  0  0  0  0  0  0  0  0  0
  132.6848  140.0816  158.8547 H   0  0  0  0  0  0  0  0  0  0  0  0
  130.6494  138.7014  158.8079 H   0  0  0  0  0  0  0  0  0  0  0  0
  130.0151  135.9382  161.1378 H   0  0  0  0  0  0  0  0  0  0  0  0
  129.2896  137.0624  159.9639 H   0  0  0  0  0  0  0  0  0  0  0  0
  128.4726  134.4652  159.6247 H   0  0  0  0  0  0  0  0  0  0  0  0
  128.3354  135.7488  158.3992 H   0  0  0  0  0  0  0  0  0  0  0  0
  129.5378  134.3286  156.7668 H   0  0  0  0  0  0  0  0  0  0  0  0
  128.0889  133.4953  157.3797 H   0  0  0  0  0  0  0  0  0  0  0  0
  130.9618  133.1791  155.8353 H   0  0  0  0  0  0  0  0  0  0  0  0
  132.0585  131.9102  156.4313 H   0  0  0  0  0  0  0  0  0  0  0  0
  132.1307  129.7314  155.3700 H   0  0  0  0  0  0  0  0  0  0  0  0
  131.7533  128.4354  153.3110 H   0  0  0  0  0  0  0  0  0  0  0  0
  129.1237  131.4792  151.8813 H   0  0  0  0  0  0  0  0  0  0  0  0
  129.4948  132.7671  153.9465 H   0  0  0  0  0  0  0  0  0  0  0  0
  130.1901  129.5621  157.1121 H   0  0  0  0  0  0  0  0  0  0  0  0
  131.7428  133.6912  157.6505 H   0  0  0  0  0  0  0  0  0  0  0  0
  131.8406  132.4108  158.8837 H   0  0  0  0  0  0  0  0  0  0  0  0
  132.0819  134.6661  159.9003 H   0  0  0  0  0  0  0  0  0  0  0  0
  130.6127  133.8468  160.4821 H   0  0  0  0  0  0  0  0  0  0  0  0
  132.3848  136.0125  161.6289 H   0  0  0  0  0  0  0  0  0  0  0  0
  134.4249  137.3849  161.6985 H   0  0  0  0  0  0  0  0  0  0  0  0
  136.4256  139.0803  158.9013 H   0  0  0  0  0  0  0  0  0  0  0  0
  135.1825  140.1952  158.2554 H   0  0  0  0  0  0  0  0  0  0  0  0
  136.1913  142.0920  159.2444 H   0  0  0  0  0  0  0  0  0  0  0  0
  137.6650  141.0711  159.1482 H   0  0  0  0  0  0  0  0  0  0  0  0
  136.6293  141.9888  161.5608 H   0  0  0  0  0  0  0  0  0  0  0  0
  137.5300  140.4484  161.4154 H   0  0  0  0  0  0  0  0  0  0  0  0
  1  2  1  0
  1 34  1  0
  1 35  1  0
  1 36  1  0
  2 33  1  0
  2  3  2  0
  3  4  1  0
  3 31  1  0
  4 30  1  0
  4  5  2  0
  5  6  1  0
  5 37  1  0
  6  7  2  0
  6 38  1  0
  7  8  1  0
  7 29  1  0
  8  9  1  0
  8 39  1  0
  8 40  1  0
  9 10  1  0
  9 28  1  0
  9 11  1  0
 11 12  1  0
 11 41  1  0
 11 42  1  0
 12 13  1  0
 12 43  1  0
 12 44  1  0
 13 14  1  0
 13 27  1  0
 14 15  1  6
 14 16  1  0
 14 24  1  0
 16 17  1  0
 16 45  1  0
 16 46  1  0
 17 23  1  0
 17 18  2  0
 18 19  1  0
 18 47  1  0
 19 20  2  0
 19 48  1  0
 20 21  1  0
 20 22  1  0
 22 23  2  0
 22 49  1  0
 23 50  1  0
 24 25  1  0
 24 26  1  0
 24 51  1  0
 27 28  1  0
 27 52  1  0
 27 53  1  0
 28 54  1  0
 28 55  1  0
 29 30  2  0
 29 56  1  0
 30 57  1  0
 31 32  1  0
 31 58  1  0
 31 59  1  0
 32 33  1  0
 32 60  1  0
 32 61  1  0
 33 62  1  0
 33 63  1  0
M  CHG  1   9   1
M  END
>  <DOCK_score>  (1) 
-57.865871

>  <SMILES>  (1) 
CC1=C(c2ccc(C[NH+]3CCN([C@@H](Cc4ccc(F)cc4)C(F)F)CC3)cc2)CCC1

$$$$
