CCSc1ccc(C2(O)C=CC(=O)C=C2)cc1Nc1[nH]cc(-c2ccccc2)[nH+]1
     RDKit          3D

 51 54  0  0  1  0  0  0  0  0999 V2000
  133.5604  135.7801  161.0021 C   0  0  0  0  0  0  0  0  0  0  0  0
  132.2370  135.4538  161.6968 C   0  0  0  0  0  0  0  0  0  0  0  0
  131.1554  136.9095  161.6519 S   0  0  0  0  0  0  0  0  0  0  0  0
  129.5414  136.2033  161.6234 C   0  0  0  0  0  0  0  0  0  0  0  0
  128.6391  136.4882  162.6384 C   0  0  0  0  0  0  0  0  0  0  0  0
  127.3715  135.9375  162.6108 C   0  0  0  0  0  0  0  0  0  0  0  0
  127.0021  135.0935  161.5795 C   0  0  0  0  0  0  0  0  0  0  0  0
  125.6205  134.4921  161.5595 C   0  0  0  0  0  0  0  0  0  0  0  0
  124.7243  135.3776  162.2337 O   0  0  0  0  0  0  0  0  0  0  0  0
  125.1777  134.3496  160.1375 C   0  0  0  0  0  0  0  0  0  0  0  0
  125.1603  133.1900  159.4969 C   0  0  0  0  0  0  0  0  0  0  0  0
  125.5763  131.9657  160.2063 C   0  0  0  0  0  0  0  0  0  0  0  0
  125.8583  130.9507  159.5970 O   0  0  0  0  0  0  0  0  0  0  0  0
  125.6384  132.0127  161.6791 C   0  0  0  0  0  0  0  0  0  0  0  0
  125.6521  133.1885  162.2930 C   0  0  0  0  0  0  0  0  0  0  0  0
  127.8943  134.8043  160.5636 C   0  0  0  0  0  0  0  0  0  0  0  0
  129.1664  135.3562  160.5800 C   0  0  0  0  0  0  0  0  0  0  0  0
  130.0718  135.0647  159.5519 N   0  0  0  0  0  0  0  0  0  0  0  0
  130.0085  133.8453  158.8987 C   0  0  0  0  0  0  0  0  0  0  0  0
  129.5875  132.6727  159.4473 N   0  0  0  0  0  0  0  0  0  0  0  0
  129.2805  132.5420  160.3581 H   0  0  0  0  0  0  0  0  0  0  0  0
  129.6743  131.7097  158.4720 C   0  0  0  0  0  0  0  0  0  0  0  0
  130.1542  132.3185  157.3591 C   0  0  0  0  0  0  0  0  0  0  0  0
  130.4177  131.6672  156.0527 C   0  0  0  0  0  0  0  0  0  0  0  0
  129.7481  132.0977  154.9087 C   0  0  0  0  0  0  0  0  0  0  0  0
  130.0014  131.4919  153.6949 C   0  0  0  0  0  0  0  0  0  0  0  0
  130.9097  130.4514  153.6146 C   0  0  0  0  0  0  0  0  0  0  0  0
  131.5733  130.0166  154.7476 C   0  0  0  0  0  0  0  0  0  0  0  0
  131.3319  130.6187  155.9657 C   0  0  0  0  0  0  0  0  0  0  0  0
  130.3495  133.6285  157.6516 N   0  0  0  0  0  0  0  0  0  0  0  0
  130.6876  134.2978  157.0364 H   0  0  0  0  0  0  0  0  0  0  0  0
  133.3681  136.0580  159.9658 H   0  0  0  0  0  0  0  0  0  0  0  0
  134.0459  136.6095  161.5163 H   0  0  0  0  0  0  0  0  0  0  0  0
  134.2103  134.9056  161.0291 H   0  0  0  0  0  0  0  0  0  0  0  0
  132.4294  135.1760  162.7331 H   0  0  0  0  0  0  0  0  0  0  0  0
  131.7514  134.6245  161.1824 H   0  0  0  0  0  0  0  0  0  0  0  0
  128.9259  137.1434  163.4476 H   0  0  0  0  0  0  0  0  0  0  0  0
  126.6692  136.1635  163.3993 H   0  0  0  0  0  0  0  0  0  0  0  0
  124.6657  136.2567  161.8351 H   0  0  0  0  0  0  0  0  0  0  0  0
  124.8586  135.2339  159.6063 H   0  0  0  0  0  0  0  0  0  0  0  0
  124.8428  133.1411  158.4659 H   0  0  0  0  0  0  0  0  0  0  0  0
  125.6721  131.0982  162.2525 H   0  0  0  0  0  0  0  0  0  0  0  0
  125.6874  133.2055  163.3724 H   0  0  0  0  0  0  0  0  0  0  0  0
  127.6007  134.1484  159.7575 H   0  0  0  0  0  0  0  0  0  0  0  0
  130.7431  135.7171  159.2975 H   0  0  0  0  0  0  0  0  0  0  0  0
  129.4146  130.6663  158.5733 H   0  0  0  0  0  0  0  0  0  0  0  0
  129.0353  132.9067  154.9714 H   0  0  0  0  0  0  0  0  0  0  0  0
  129.4864  131.8275  152.8070 H   0  0  0  0  0  0  0  0  0  0  0  0
  131.1021  129.9778  152.6631 H   0  0  0  0  0  0  0  0  0  0  0  0
  132.2816  129.2043  154.6788 H   0  0  0  0  0  0  0  0  0  0  0  0
  131.8507  130.2784  156.8497 H   0  0  0  0  0  0  0  0  0  0  0  0
  1  2  1  0
  1 32  1  0
  1 33  1  0
  1 34  1  0
  2  3  1  0
  2 35  1  0
  2 36  1  0
  3  4  1  0
  4 17  2  0
  4  5  1  0
  5  6  2  0
  5 37  1  0
  6  7  1  0
  6 38  1  0
  7  8  1  0
  7 16  2  0
  8 15  1  0
  8  9  1  0
  8 10  1  0
  9 39  1  0
 10 11  2  0
 10 40  1  0
 11 12  1  0
 11 41  1  0
 12 13  2  0
 12 14  1  0
 14 15  2  0
 14 42  1  0
 15 43  1  0
 16 17  1  0
 16 44  1  0
 17 18  1  0
 18 45  1  0
 19 18  1  0
 19 30  2  0
 19 20  1  0
 20 21  1  0
 20 22  1  0
 22 23  2  0
 22 46  1  0
 23 24  1  0
 23 30  1  0
 24 29  1  0
 24 25  2  0
 25 26  1  0
 25 47  1  0
 26 27  2  0
 26 48  1  0
 27 28  1  0
 27 49  1  0
 28 29  2  0
 28 50  1  0
 29 51  1  0
 30 31  1  0
M  CHG  1  30   1
M  END
>  <DOCK_score>  (1) 
-49.543854

>  <SMILES>  (1) 
CCSc1ccc(C2(O)C=CC(=O)C=C2)cc1Nc1[nH]cc(-c2ccccc2)[nH+]1

$$$$
