Nc1ccc(-c2c[nH]c(N[C@@H](C(=CC=CCl)c3ccccc3)c3ccccc3)[nH+]2)cc1
     RDKit          3D

 55 58  0  0  1  0  0  0  0  0999 V2000
  131.2707  129.8302  152.1075 N   0  0  0  0  0  0  0  0  0  0  0  0
  131.0242  130.4402  153.3398 C   0  0  0  0  0  0  0  0  0  0  0  0
  130.1037  131.4776  153.4285 C   0  0  0  0  0  0  0  0  0  0  0  0
  129.8586  132.0812  154.6440 C   0  0  0  0  0  0  0  0  0  0  0  0
  130.5350  131.6501  155.7841 C   0  0  0  0  0  0  0  0  0  0  0  0
  130.2731  132.2979  157.0927 C   0  0  0  0  0  0  0  0  0  0  0  0
  129.8000  131.6851  158.2059 C   0  0  0  0  0  0  0  0  0  0  0  0
  129.7084  132.6481  159.1828 N   0  0  0  0  0  0  0  0  0  0  0  0
  129.4012  132.5156  160.0932 H   0  0  0  0  0  0  0  0  0  0  0  0
  130.1288  133.8213  158.6364 C   0  0  0  0  0  0  0  0  0  0  0  0
  130.1909  135.0393  159.2915 N   0  0  0  0  0  0  0  0  0  0  0  0
  129.7824  135.1379  160.6949 C   0  0  1  0  0  0  0  0  0  0  0  0
  130.1322  134.2597  161.2377 H   0  0  0  0  0  0  0  0  0  0  0  0
  130.3814  136.3781  161.3066 C   0  0  0  0  0  0  0  0  0  0  0  0
  129.5797  137.3329  161.8139 C   0  0  0  0  0  0  0  0  0  0  0  0
  130.1620  138.5389  162.4087 C   0  0  0  0  0  0  0  0  0  0  0  0
  129.3676  139.4850  162.9113 C   0  0  0  0  0  0  0  0  0  0  0  0
  130.0575  140.9138  163.6159 Cl  0  0  0  0  0  0  0  0  0  0  0  0
  131.8441  136.5455  161.3492 C   0  0  0  0  0  0  0  0  0  0  0  0
  132.5729  136.0785  162.4469 C   0  0  0  0  0  0  0  0  0  0  0  0
  133.9423  136.2384  162.4794 C   0  0  0  0  0  0  0  0  0  0  0  0
  134.5950  136.8595  161.4290 C   0  0  0  0  0  0  0  0  0  0  0  0
  133.8796  137.3295  160.3416 C   0  0  0  0  0  0  0  0  0  0  0  0
  132.5106  137.1718  160.2920 C   0  0  0  0  0  0  0  0  0  0  0  0
  128.2794  135.2133  160.7765 C   0  0  0  0  0  0  0  0  0  0  0  0
  127.6204  134.7015  161.8784 C   0  0  0  0  0  0  0  0  0  0  0  0
  126.2421  134.7745  161.9552 C   0  0  0  0  0  0  0  0  0  0  0  0
  125.5222  135.3512  160.9254 C   0  0  0  0  0  0  0  0  0  0  0  0
  126.1810  135.8584  159.8210 C   0  0  0  0  0  0  0  0  0  0  0  0
  127.5595  135.7892  159.7464 C   0  0  0  0  0  0  0  0  0  0  0  0
  130.4601  133.6091  157.3860 N   0  0  0  0  0  0  0  0  0  0  0  0
  130.7885  134.2820  156.7694 H   0  0  0  0  0  0  0  0  0  0  0  0
  131.4622  130.6132  155.6916 C   0  0  0  0  0  0  0  0  0  0  0  0
  131.6994  130.0083  154.4754 C   0  0  0  0  0  0  0  0  0  0  0  0
  130.7998  130.1305  151.3147 H   0  0  0  0  0  0  0  0  0  0  0  0
  131.9132  129.1059  152.0448 H   0  0  0  0  0  0  0  0  0  0  0  0
  129.5802  131.8115  152.5450 H   0  0  0  0  0  0  0  0  0  0  0  0
  129.1430  132.8871  154.7125 H   0  0  0  0  0  0  0  0  0  0  0  0
  129.5437  130.6407  158.3058 H   0  0  0  0  0  0  0  0  0  0  0  0
  130.5049  135.8275  158.8212 H   0  0  0  0  0  0  0  0  0  0  0  0
  128.5071  137.2102  161.7826 H   0  0  0  0  0  0  0  0  0  0  0  0
  131.2346  138.6616  162.4398 H   0  0  0  0  0  0  0  0  0  0  0  0
  128.2950  139.3623  162.8801 H   0  0  0  0  0  0  0  0  0  0  0  0
  132.0648  135.5940  163.2675 H   0  0  0  0  0  0  0  0  0  0  0  0
  134.5066  135.8778  163.3266 H   0  0  0  0  0  0  0  0  0  0  0  0
  135.6676  136.9820  161.4601 H   0  0  0  0  0  0  0  0  0  0  0  0
  134.3956  137.8172  159.5275 H   0  0  0  0  0  0  0  0  0  0  0  0
  131.9542  137.5350  159.4407 H   0  0  0  0  0  0  0  0  0  0  0  0
  128.1825  134.2475  162.6812 H   0  0  0  0  0  0  0  0  0  0  0  0
  125.7275  134.3786  162.8180 H   0  0  0  0  0  0  0  0  0  0  0  0
  124.4452  135.4060  160.9841 H   0  0  0  0  0  0  0  0  0  0  0  0
  125.6186  136.3089  159.0166 H   0  0  0  0  0  0  0  0  0  0  0  0
  128.0742  136.1854  158.8835 H   0  0  0  0  0  0  0  0  0  0  0  0
  131.9905  130.2805  156.5728 H   0  0  0  0  0  0  0  0  0  0  0  0
  132.4143  129.2019  154.4041 H   0  0  0  0  0  0  0  0  0  0  0  0
  1  2  1  0
  1 35  1  0
  1 36  1  0
  2 34  2  0
  2  3  1  0
  3  4  2  0
  3 37  1  0
  4  5  1  0
  4 38  1  0
  5  6  1  0
  5 33  2  0
  6 31  1  0
  6  7  2  0
  7  8  1  0
  7 39  1  0
  8  9  1  0
  8 10  1  0
 10 11  1  0
 10 31  2  0
 11 12  1  0
 11 40  1  0
 12 13  1  1
 12 14  1  0
 12 25  1  0
 14 15  2  0
 14 19  1  0
 15 16  1  0
 15 41  1  0
 16 17  2  0
 16 42  1  0
 17 18  1  0
 17 43  1  0
 19 24  1  0
 19 20  2  0
 20 21  1  0
 20 44  1  0
 21 22  2  0
 21 45  1  0
 22 23  1  0
 22 46  1  0
 23 24  2  0
 23 47  1  0
 24 48  1  0
 25 30  1  0
 25 26  2  0
 26 27  1  0
 26 49  1  0
 27 28  2  0
 27 50  1  0
 28 29  1  0
 28 51  1  0
 29 30  2  0
 29 52  1  0
 30 53  1  0
 31 32  1  0
 33 34  1  0
 33 54  1  0
 34 55  1  0
M  CHG  1  31   1
M  END
>  <DOCK_score>  (1) 
-57.701412

>  <SMILES>  (1) 
Nc1ccc(-c2c[nH]c(N[C@@H](C(=CC=CCl)c3ccccc3)c3ccccc3)[nH+]2)cc1

$$$$
