C[C@@H](NC1=CCC[NH2+]C1)C(=O)c1cccc(O)c1
     RDKit          3D

 37 38  0  0  1  0  0  0  0  0999 V2000
  129.2335  134.1347  161.8899 C   0  0  0  0  0  0  0  0  0  0  0  0
  129.3231  134.1016  160.3630 C   0  0  1  0  0  0  0  0  0  0  0  0
  130.1706  134.7040  160.0356 H   0  0  0  0  0  0  0  0  0  0  0  0
  129.5046  132.7189  159.9144 N   0  0  0  0  0  0  0  0  0  0  0  0
  130.0196  132.4607  158.6503 C   0  0  0  0  0  0  0  0  0  0  0  0
  130.1694  131.2138  158.2798 C   0  0  0  0  0  0  0  0  0  0  0  0
  130.7186  130.8329  156.9325 C   0  0  0  0  0  0  0  0  0  0  0  0
  130.6816  132.0469  156.0004 C   0  0  0  0  0  0  0  0  0  0  0  0
  131.2849  133.1930  156.6988 N   0  0  0  0  0  0  0  0  0  0  0  0
  131.4211  133.9516  156.0478 H   0  0  0  0  0  0  0  0  0  0  0  0
  132.1739  132.9211  157.0914 H   0  0  0  0  0  0  0  0  0  0  0  0
  130.3843  133.6243  157.7743 C   0  0  0  0  0  0  0  0  0  0  0  0
  128.0532  134.6586  159.7730 C   0  0  0  0  0  0  0  0  0  0  0  0
  128.0953  135.6354  159.0558 O   0  0  0  0  0  0  0  0  0  0  0  0
  126.7618  134.0168  160.0673 C   0  0  0  0  0  0  0  0  0  0  0  0
  126.5466  132.6791  159.7195 C   0  0  0  0  0  0  0  0  0  0  0  0
  125.3352  132.0821  159.9977 C   0  0  0  0  0  0  0  0  0  0  0  0
  124.3307  132.8012  160.6200 C   0  0  0  0  0  0  0  0  0  0  0  0
  124.5338  134.1297  160.9695 C   0  0  0  0  0  0  0  0  0  0  0  0
  123.5425  134.8300  161.5811 O   0  0  0  0  0  0  0  0  0  0  0  0
  125.7470  134.7396  160.7008 C   0  0  0  0  0  0  0  0  0  0  0  0
  128.3860  133.5323  162.2174 H   0  0  0  0  0  0  0  0  0  0  0  0
  129.0984  135.1635  162.2238 H   0  0  0  0  0  0  0  0  0  0  0  0
  130.1521  133.7318  162.3167 H   0  0  0  0  0  0  0  0  0  0  0  0
  129.2652  131.9836  160.4999 H   0  0  0  0  0  0  0  0  0  0  0  0
  129.8841  130.4297  158.9656 H   0  0  0  0  0  0  0  0  0  0  0  0
  130.1174  130.0297  156.5065 H   0  0  0  0  0  0  0  0  0  0  0  0
  131.7483  130.4943  157.0470 H   0  0  0  0  0  0  0  0  0  0  0  0
  129.6484  132.2785  155.7419 H   0  0  0  0  0  0  0  0  0  0  0  0
  131.2466  131.8322  155.0932 H   0  0  0  0  0  0  0  0  0  0  0  0
  129.4783  134.0454  157.3385 H   0  0  0  0  0  0  0  0  0  0  0  0
  130.8829  134.3852  158.3747 H   0  0  0  0  0  0  0  0  0  0  0  0
  127.3287  132.1144  159.2339 H   0  0  0  0  0  0  0  0  0  0  0  0
  125.1702  131.0491  159.7290 H   0  0  0  0  0  0  0  0  0  0  0  0
  123.3842  132.3276  160.8346 H   0  0  0  0  0  0  0  0  0  0  0  0
  123.7763  135.7458  161.7855 H   0  0  0  0  0  0  0  0  0  0  0  0
  125.9074  135.7716  160.9758 H   0  0  0  0  0  0  0  0  0  0  0  0
  1  2  1  0
  1 22  1  0
  1 23  1  0
  1 24  1  0
  2  3  1  1
  2  4  1  0
  2 13  1  0
  4  5  1  0
  4 25  1  0
  5 12  1  0
  5  6  2  0
  6  7  1  0
  6 26  1  0
  7  8  1  0
  7 27  1  0
  7 28  1  0
  8  9  1  0
  8 29  1  0
  8 30  1  0
  9 10  1  0
  9 11  1  0
  9 12  1  0
 12 31  1  0
 12 32  1  0
 13 14  2  0
 13 15  1  0
 15 21  1  0
 15 16  2  0
 16 17  1  0
 16 33  1  0
 17 18  2  0
 17 34  1  0
 18 19  1  0
 18 35  1  0
 19 20  1  0
 19 21  2  0
 20 36  1  0
 21 37  1  0
M  CHG  1   9   1
M  END
>  <DOCK_score>  (1) 
-41.794052

>  <SMILES>  (1) 
C[C@@H](NC1=CCC[NH2+]C1)C(=O)c1cccc(O)c1

$$$$
