CCc1ccc(-c2c[nH]c(N[C@@H](CC)c3ccc(F)cc3)[nH+]2)cc1
     RDKit          3D

 47 49  0  0  1  0  0  0  0  0999 V2000
  130.6057  128.2997  151.8436 C   0  0  0  0  0  0  0  0  0  0  0  0
  131.6827  129.3316  152.1838 C   0  0  0  0  0  0  0  0  0  0  0  0
  131.2801  130.0878  153.4236 C   0  0  0  0  0  0  0  0  0  0  0  0
  131.6604  129.6218  154.6688 C   0  0  0  0  0  0  0  0  0  0  0  0
  131.2987  130.3128  155.8073 C   0  0  0  0  0  0  0  0  0  0  0  0
  130.5396  131.4769  155.7012 C   0  0  0  0  0  0  0  0  0  0  0  0
  130.1434  132.2212  156.9215 C   0  0  0  0  0  0  0  0  0  0  0  0
  129.3992  131.7357  157.9459 C   0  0  0  0  0  0  0  0  0  0  0  0
  129.2720  132.7512  158.8624 N   0  0  0  0  0  0  0  0  0  0  0  0
  128.7923  132.7083  159.7044 H   0  0  0  0  0  0  0  0  0  0  0  0
  129.9429  133.8284  158.3707 C   0  0  0  0  0  0  0  0  0  0  0  0
  130.0573  135.0598  158.9928 N   0  0  0  0  0  0  0  0  0  0  0  0
  128.9881  135.5379  159.8728 C   0  0  1  0  0  0  0  0  0  0  0  0
  128.8559  134.8376  160.6976 H   0  0  0  0  0  0  0  0  0  0  0  0
  129.3612  136.9142  160.4274 C   0  0  0  0  0  0  0  0  0  0  0  0
  130.6653  136.8081  161.2205 C   0  0  0  0  0  0  0  0  0  0  0  0
  127.7036  135.6425  159.0917 C   0  0  0  0  0  0  0  0  0  0  0  0
  126.4909  135.4529  159.7278 C   0  0  0  0  0  0  0  0  0  0  0  0
  125.3121  135.5542  159.0137 C   0  0  0  0  0  0  0  0  0  0  0  0
  125.3464  135.8349  157.6583 C   0  0  0  0  0  0  0  0  0  0  0  0
  124.1948  135.9287  156.9580 F   0  0  0  0  0  0  0  0  0  0  0  0
  126.5618  136.0190  157.0210 C   0  0  0  0  0  0  0  0  0  0  0  0
  127.7391  135.9223  157.7384 C   0  0  0  0  0  0  0  0  0  0  0  0
  130.4664  133.5062  157.2131 N   0  0  0  0  0  0  0  0  0  0  0  0
  130.9984  134.0934  156.6535 H   0  0  0  0  0  0  0  0  0  0  0  0
  130.1547  131.9393  154.4440 C   0  0  0  0  0  0  0  0  0  0  0  0
  130.5265  131.2430  153.3119 C   0  0  0  0  0  0  0  0  0  0  0  0
  130.4955  127.6028  152.6744 H   0  0  0  0  0  0  0  0  0  0  0  0
  129.6578  128.8079  151.6674 H   0  0  0  0  0  0  0  0  0  0  0  0
  130.8970  127.7527  150.9468 H   0  0  0  0  0  0  0  0  0  0  0  0
  132.6306  128.8238  152.3597 H   0  0  0  0  0  0  0  0  0  0  0  0
  131.7928  130.0291  151.3526 H   0  0  0  0  0  0  0  0  0  0  0  0
  132.2450  128.7172  154.7502 H   0  0  0  0  0  0  0  0  0  0  0  0
  131.6002  129.9502  156.7790 H   0  0  0  0  0  0  0  0  0  0  0  0
  128.9854  130.7414  158.0258 H   0  0  0  0  0  0  0  0  0  0  0  0
  130.8452  135.6060  158.8460 H   0  0  0  0  0  0  0  0  0  0  0  0
  129.4935  137.6146  159.6028 H   0  0  0  0  0  0  0  0  0  0  0  0
  128.5657  137.2699  161.0822 H   0  0  0  0  0  0  0  0  0  0  0  0
  130.9311  137.7885  161.6155 H   0  0  0  0  0  0  0  0  0  0  0  0
  130.5332  136.1077  162.0451 H   0  0  0  0  0  0  0  0  0  0  0  0
  131.4608  136.4523  160.5656 H   0  0  0  0  0  0  0  0  0  0  0  0
  126.4646  135.2297  160.7841 H   0  0  0  0  0  0  0  0  0  0  0  0
  124.3647  135.4108  159.5119 H   0  0  0  0  0  0  0  0  0  0  0  0
  126.5898  136.2376  155.9639 H   0  0  0  0  0  0  0  0  0  0  0  0
  128.6872  136.0659  157.2416 H   0  0  0  0  0  0  0  0  0  0  0  0
  129.5661  132.8405  154.3558 H   0  0  0  0  0  0  0  0  0  0  0  0
  130.2284  131.6001  152.3372 H   0  0  0  0  0  0  0  0  0  0  0  0
  1  2  1  0
  1 28  1  0
  1 29  1  0
  1 30  1  0
  2  3  1  0
  2 31  1  0
  2 32  1  0
  3 27  2  0
  3  4  1  0
  4  5  2  0
  4 33  1  0
  5  6  1  0
  5 34  1  0
  6  7  1  0
  6 26  2  0
  7 24  1  0
  7  8  2  0
  8  9  1  0
  8 35  1  0
  9 10  1  0
  9 11  1  0
 11 12  1  0
 11 24  2  0
 12 13  1  0
 12 36  1  0
 13 14  1  1
 13 15  1  0
 13 17  1  0
 15 16  1  0
 15 37  1  0
 15 38  1  0
 16 39  1  0
 16 40  1  0
 16 41  1  0
 17 23  1  0
 17 18  2  0
 18 19  1  0
 18 42  1  0
 19 20  2  0
 19 43  1  0
 20 21  1  0
 20 22  1  0
 22 23  2  0
 22 44  1  0
 23 45  1  0
 24 25  1  0
 26 27  1  0
 26 46  1  0
 27 47  1  0
M  CHG  1  24   1
M  END
>  <DOCK_score>  (1) 
-58.191547

>  <SMILES>  (1) 
CCc1ccc(-c2c[nH]c(N[C@@H](CC)c3ccc(F)cc3)[nH+]2)cc1

$$$$
