CC(=O)[C@@H](Cc1ccccc1)C(Nc1[nH]cc(-c2cccnc2)[nH+]1)C1=CCCC1
     RDKit          3D

 56 59  0  0  1  0  0  0  0  0999 V2000
  129.5256  136.7804  163.2185 C   0  0  0  0  0  0  0  0  0  0  0  0
  129.7118  137.5055  161.9106 C   0  0  0  0  0  0  0  0  0  0  0  0
  129.0860  138.5134  161.6845 O   0  0  0  0  0  0  0  0  0  0  0  0
  130.6789  136.9732  160.8849 C   0  0  1  0  0  0  0  0  0  0  0  0
  130.6779  137.6254  160.0115 H   0  0  0  0  0  0  0  0  0  0  0  0
  132.0853  136.9272  161.4855 C   0  0  0  0  0  0  0  0  0  0  0  0
  132.6956  138.3045  161.4416 C   0  0  0  0  0  0  0  0  0  0  0  0
  133.4347  138.6982  160.3419 C   0  0  0  0  0  0  0  0  0  0  0  0
  134.0000  139.9591  160.3045 C   0  0  0  0  0  0  0  0  0  0  0  0
  133.8254  140.8265  161.3665 C   0  0  0  0  0  0  0  0  0  0  0  0
  133.0859  140.4330  162.4660 C   0  0  0  0  0  0  0  0  0  0  0  0
  132.5210  139.1719  162.5037 C   0  0  0  0  0  0  0  0  0  0  0  0
  130.2558  135.5630  160.4686 C   0  0  2  0  0  0  0  0  0  0  0  0
  130.8650  135.2312  159.1782 N   0  0  0  0  0  0  0  0  0  0  0  0
  130.6249  133.9984  158.5959 C   0  0  0  0  0  0  0  0  0  0  0  0
  129.8407  133.0153  159.1161 N   0  0  0  0  0  0  0  0  0  0  0  0
  129.3539  133.0518  159.9543 H   0  0  0  0  0  0  0  0  0  0  0  0
  129.8661  131.9615  158.2352 C   0  0  0  0  0  0  0  0  0  0  0  0
  130.6643  132.3306  157.2029 C   0  0  0  0  0  0  0  0  0  0  0  0
  130.9879  131.5076  156.0120 C   0  0  0  0  0  0  0  0  0  0  0  0
  131.2535  132.1138  154.7805 C   0  0  0  0  0  0  0  0  0  0  0  0
  131.5547  131.3020  153.7009 C   0  0  0  0  0  0  0  0  0  0  0  0
  131.5729  129.9293  153.8706 C   0  0  0  0  0  0  0  0  0  0  0  0
  131.3131  129.3858  155.0439 N   0  0  0  0  0  0  0  0  0  0  0  0
  131.0264  130.1176  156.1011 C   0  0  0  0  0  0  0  0  0  0  0  0
  131.1107  133.5878  157.4499 N   0  0  0  0  0  0  0  0  0  0  0  0
  131.6978  134.1000  156.8720 H   0  0  0  0  0  0  0  0  0  0  0  0
  128.7550  135.5046  160.3454 C   0  0  0  0  0  0  0  0  0  0  0  0
  127.9873  134.7117  161.0422 C   0  0  0  0  0  0  0  0  0  0  0  0
  126.5335  134.9028  160.6771 C   0  0  0  0  0  0  0  0  0  0  0  0
  126.5631  135.6591  159.3286 C   0  0  0  0  0  0  0  0  0  0  0  0
  127.9408  136.3609  159.4035 C   0  0  0  0  0  0  0  0  0  0  0  0
  130.2333  137.1667  163.9521 H   0  0  0  0  0  0  0  0  0  0  0  0
  128.5084  136.9353  163.5783 H   0  0  0  0  0  0  0  0  0  0  0  0
  129.7005  135.7146  163.0711 H   0  0  0  0  0  0  0  0  0  0  0  0
  132.7035  136.2375  160.9108 H   0  0  0  0  0  0  0  0  0  0  0  0
  132.0279  136.5880  162.5197 H   0  0  0  0  0  0  0  0  0  0  0  0
  133.5712  138.0205  159.5121 H   0  0  0  0  0  0  0  0  0  0  0  0
  134.5778  140.2666  159.4455 H   0  0  0  0  0  0  0  0  0  0  0  0
  134.2672  141.8117  161.3374 H   0  0  0  0  0  0  0  0  0  0  0  0
  132.9497  141.1106  163.2960 H   0  0  0  0  0  0  0  0  0  0  0  0
  131.9435  138.8643  163.3629 H   0  0  0  0  0  0  0  0  0  0  0  0
  130.5867  134.8472  161.2213 H   0  0  0  0  0  0  0  0  0  0  0  0
  131.4367  135.8754  158.7318 H   0  0  0  0  0  0  0  0  0  0  0  0
  129.3489  131.0196  158.3436 H   0  0  0  0  0  0  0  0  0  0  0  0
  131.2280  133.1883  154.6754 H   0  0  0  0  0  0  0  0  0  0  0  0
  131.7687  131.7354  152.7350 H   0  0  0  0  0  0  0  0  0  0  0  0
  131.8039  129.2927  153.0294 H   0  0  0  0  0  0  0  0  0  0  0  0
  130.8195  129.6359  157.0453 H   0  0  0  0  0  0  0  0  0  0  0  0
  128.3442  134.0108  161.7823 H   0  0  0  0  0  0  0  0  0  0  0  0
  126.0413  133.9372  160.5602 H   0  0  0  0  0  0  0  0  0  0  0  0
  126.0267  135.4990  161.4358 H   0  0  0  0  0  0  0  0  0  0  0  0
  126.5186  134.9648  158.4895 H   0  0  0  0  0  0  0  0  0  0  0  0
  125.7563  136.3899  159.2722 H   0  0  0  0  0  0  0  0  0  0  0  0
  127.8347  137.3695  159.8031 H   0  0  0  0  0  0  0  0  0  0  0  0
  128.4056  136.3889  158.4180 H   0  0  0  0  0  0  0  0  0  0  0  0
  1  2  1  0
  1 33  1  0
  1 34  1  0
  1 35  1  0
  2  3  2  0
  2  4  1  0
  4  5  1  6
  4  6  1  0
  4 13  1  0
  6  7  1  0
  6 36  1  0
  6 37  1  0
  7 12  1  0
  7  8  2  0
  8  9  1  0
  8 38  1  0
  9 10  2  0
  9 39  1  0
 10 11  1  0
 10 40  1  0
 11 12  2  0
 11 41  1  0
 12 42  1  0
 13 14  1  0
 13 28  1  0
 13 43  1  1
 14 44  1  0
 15 14  1  0
 15 26  2  0
 15 16  1  0
 16 17  1  0
 16 18  1  0
 18 19  2  0
 18 45  1  0
 19 20  1  0
 19 26  1  0
 20 25  1  0
 20 21  2  0
 21 22  1  0
 21 46  1  0
 22 23  2  0
 22 47  1  0
 23 24  1  0
 23 48  1  0
 24 25  2  0
 25 49  1  0
 26 27  1  0
 28 32  1  0
 28 29  2  0
 29 30  1  0
 29 50  1  0
 30 31  1  0
 30 51  1  0
 30 52  1  0
 31 32  1  0
 31 53  1  0
 31 54  1  0
 32 55  1  0
 32 56  1  0
M  CHG  1  26   1
M  END
>  <DOCK_score>  (1) 
-55.916641

>  <SMILES>  (1) 
CC(=O)[C@@H](Cc1ccccc1)C(Nc1[nH]cc(-c2cccnc2)[nH+]1)C1=CCCC1

$$$$
