Cc1c(CCCc2ccccc2)cccc1N1CC[NH+](C(c2ccccc2)c2ccccc2)CC1
     RDKit          3D

 72 76  0  0  0  0  0  0  0  0999 V2000
  134.0386  135.7410  163.4819 C   0  0  0  0  0  0  0  0  0  0  0  0
  134.4489  136.6769  162.3744 C   0  0  0  0  0  0  0  0  0  0  0  0
  135.4648  137.5895  162.5812 C   0  0  0  0  0  0  0  0  0  0  0  0
  136.1638  137.6484  163.9150 C   0  0  0  0  0  0  0  0  0  0  0  0
  135.4364  138.6367  164.8288 C   0  0  0  0  0  0  0  0  0  0  0  0
  135.4444  140.0256  164.1872 C   0  0  0  0  0  0  0  0  0  0  0  0
  134.7279  140.9989  165.0873 C   0  0  0  0  0  0  0  0  0  0  0  0
  133.3679  141.2004  164.9441 C   0  0  0  0  0  0  0  0  0  0  0  0
  132.7099  142.0897  165.7729 C   0  0  0  0  0  0  0  0  0  0  0  0
  133.4137  142.7853  166.7380 C   0  0  0  0  0  0  0  0  0  0  0  0
  134.7748  142.5879  166.8778 C   0  0  0  0  0  0  0  0  0  0  0  0
  135.4319  141.6946  166.0524 C   0  0  0  0  0  0  0  0  0  0  0  0
  135.8416  138.4490  161.5657 C   0  0  0  0  0  0  0  0  0  0  0  0
  135.2029  138.3981  160.3399 C   0  0  0  0  0  0  0  0  0  0  0  0
  134.1864  137.4882  160.1265 C   0  0  0  0  0  0  0  0  0  0  0  0
  133.8055  136.6232  161.1447 C   0  0  0  0  0  0  0  0  0  0  0  0
  132.7779  135.7012  160.9320 N   0  0  0  0  0  0  0  0  0  0  0  0
  133.1464  134.7332  159.8893 C   0  0  0  0  0  0  0  0  0  0  0  0
  132.0219  133.7079  159.7291 C   0  0  0  0  0  0  0  0  0  0  0  0
  130.7781  134.3983  159.3630 N   0  0  0  0  0  0  0  0  0  0  0  0
  130.9143  134.9003  158.4984 H   0  0  0  0  0  0  0  0  0  0  0  0
  129.7030  133.4118  159.1917 C   0  0  0  0  0  0  0  0  0  0  0  0
  128.4268  134.1199  158.8161 C   0  0  0  0  0  0  0  0  0  0  0  0
  127.2058  133.5842  159.1814 C   0  0  0  0  0  0  0  0  0  0  0  0
  126.0355  134.2362  158.8411 C   0  0  0  0  0  0  0  0  0  0  0  0
  126.0855  135.4184  158.1264 C   0  0  0  0  0  0  0  0  0  0  0  0
  127.3061  135.9514  157.7567 C   0  0  0  0  0  0  0  0  0  0  0  0
  128.4768  135.3021  158.1015 C   0  0  0  0  0  0  0  0  0  0  0  0
  130.0797  132.4428  158.1007 C   0  0  0  0  0  0  0  0  0  0  0  0
  129.7254  132.7052  156.7905 C   0  0  0  0  0  0  0  0  0  0  0  0
  130.0751  131.8187  155.7892 C   0  0  0  0  0  0  0  0  0  0  0  0
  130.7698  130.6645  156.0995 C   0  0  0  0  0  0  0  0  0  0  0  0
  131.1195  130.3996  157.4103 C   0  0  0  0  0  0  0  0  0  0  0  0
  130.7744  131.2887  158.4110 C   0  0  0  0  0  0  0  0  0  0  0  0
  130.4099  135.3437  160.4251 C   0  0  0  0  0  0  0  0  0  0  0  0
  131.5211  136.3826  160.5912 C   0  0  0  0  0  0  0  0  0  0  0  0
  134.6263  134.8250  163.4200 H   0  0  0  0  0  0  0  0  0  0  0  0
  134.2128  136.2199  164.4456 H   0  0  0  0  0  0  0  0  0  0  0  0
  132.9802  135.5010  163.3815 H   0  0  0  0  0  0  0  0  0  0  0  0
  136.1582  136.6590  164.3722 H   0  0  0  0  0  0  0  0  0  0  0  0
  137.1934  137.9765  163.7714 H   0  0  0  0  0  0  0  0  0  0  0  0
  134.4069  138.3088  164.9724 H   0  0  0  0  0  0  0  0  0  0  0  0
  135.9420  138.6793  165.7935 H   0  0  0  0  0  0  0  0  0  0  0  0
  136.4740  140.3536  164.0435 H   0  0  0  0  0  0  0  0  0  0  0  0
  134.9389  139.9831  163.2224 H   0  0  0  0  0  0  0  0  0  0  0  0
  132.8188  140.6602  164.1871 H   0  0  0  0  0  0  0  0  0  0  0  0
  131.6466  142.2443  165.6634 H   0  0  0  0  0  0  0  0  0  0  0  0
  132.9003  143.4835  167.3826 H   0  0  0  0  0  0  0  0  0  0  0  0
  135.3247  143.1316  167.6316 H   0  0  0  0  0  0  0  0  0  0  0  0
  136.4953  141.5406  166.1613 H   0  0  0  0  0  0  0  0  0  0  0  0
  136.6393  139.1586  161.7285 H   0  0  0  0  0  0  0  0  0  0  0  0
  135.4994  139.0710  159.5490 H   0  0  0  0  0  0  0  0  0  0  0  0
  133.6885  137.4487  159.1691 H   0  0  0  0  0  0  0  0  0  0  0  0
  133.2991  135.2561  158.9452 H   0  0  0  0  0  0  0  0  0  0  0  0
  134.0659  134.2227  160.1755 H   0  0  0  0  0  0  0  0  0  0  0  0
  131.8787  133.1757  160.6695 H   0  0  0  0  0  0  0  0  0  0  0  0
  132.2869  132.9973  158.9463 H   0  0  0  0  0  0  0  0  0  0  0  0
  129.5560  132.8688  160.1252 H   0  0  0  0  0  0  0  0  0  0  0  0
  127.1667  132.6582  159.7359 H   0  0  0  0  0  0  0  0  0  0  0  0
  125.0817  133.8195  159.1296 H   0  0  0  0  0  0  0  0  0  0  0  0
  125.1709  135.9254  157.8568 H   0  0  0  0  0  0  0  0  0  0  0  0
  127.3452  136.8748  157.1980 H   0  0  0  0  0  0  0  0  0  0  0  0
  129.4305  135.7184  157.8123 H   0  0  0  0  0  0  0  0  0  0  0  0
  129.1788  133.6047  156.5487 H   0  0  0  0  0  0  0  0  0  0  0  0
  129.8017  132.0255  154.7651 H   0  0  0  0  0  0  0  0  0  0  0  0
  131.0392  129.9698  155.3178 H   0  0  0  0  0  0  0  0  0  0  0  0
  131.6620  129.4977  157.6528 H   0  0  0  0  0  0  0  0  0  0  0  0
  131.0472  131.0815  159.4352 H   0  0  0  0  0  0  0  0  0  0  0  0
  130.2751  134.8031  161.3620 H   0  0  0  0  0  0  0  0  0  0  0  0
  129.4800  135.8457  160.1583 H   0  0  0  0  0  0  0  0  0  0  0  0
  131.2549  137.0754  161.3894 H   0  0  0  0  0  0  0  0  0  0  0  0
  131.6471  136.9327  159.6586 H   0  0  0  0  0  0  0  0  0  0  0  0
  1  2  1  0
  1 37  1  0
  1 38  1  0
  1 39  1  0
  2 16  2  0
  2  3  1  0
  3  4  1  0
  3 13  2  0
  4  5  1  0
  4 40  1  0
  4 41  1  0
  5  6  1  0
  5 42  1  0
  5 43  1  0
  6  7  1  0
  6 44  1  0
  6 45  1  0
  7 12  1  0
  7  8  2  0
  8  9  1  0
  8 46  1  0
  9 10  2  0
  9 47  1  0
 10 11  1  0
 10 48  1  0
 11 12  2  0
 11 49  1  0
 12 50  1  0
 13 14  1  0
 13 51  1  0
 14 15  2  0
 14 52  1  0
 15 16  1  0
 15 53  1  0
 16 17  1  0
 17 36  1  0
 17 18  1  0
 18 19  1  0
 18 54  1  0
 18 55  1  0
 19 20  1  0
 19 56  1  0
 19 57  1  0
 20 21  1  0
 20 22  1  0
 20 35  1  0
 22 23  1  0
 22 29  1  0
 22 58  1  0
 23 28  1  0
 23 24  2  0
 24 25  1  0
 24 59  1  0
 25 26  2  0
 25 60  1  0
 26 27  1  0
 26 61  1  0
 27 28  2  0
 27 62  1  0
 28 63  1  0
 29 34  1  0
 29 30  2  0
 30 31  1  0
 30 64  1  0
 31 32  2  0
 31 65  1  0
 32 33  1  0
 32 66  1  0
 33 34  2  0
 33 67  1  0
 34 68  1  0
 35 36  1  0
 35 69  1  0
 35 70  1  0
 36 71  1  0
 36 72  1  0
M  CHG  1  20   1
M  END
>  <DOCK_score>  (1) 
-60.830795

>  <SMILES>  (1) 
Cc1c(CCCc2ccccc2)cccc1N1CC[NH+](C(c2ccccc2)c2ccccc2)CC1

$$$$
