Cc1ccc([C@@](C)(O)CC(Nc2[nH]cc(-c3ccc(N)cc3)[nH+]2)c2ccncc2)cc1
     RDKit          3D

 59 62  0  0  1  0  0  0  0  0999 V2000
  129.8139  142.0121  163.2206 C   0  0  0  0  0  0  0  0  0  0  0  0
  129.9676  140.5758  162.7910 C   0  0  0  0  0  0  0  0  0  0  0  0
  131.0418  140.2003  162.0064 C   0  0  0  0  0  0  0  0  0  0  0  0
  131.1833  138.8825  161.6133 C   0  0  0  0  0  0  0  0  0  0  0  0
  130.2506  137.9404  162.0050 C   0  0  0  0  0  0  0  0  0  0  0  0
  130.4048  136.5039  161.5765 C   0  0  1  0  0  0  0  0  0  0  0  0
  131.7308  135.9534  162.1053 C   0  0  0  0  0  0  0  0  0  0  0  0
  129.3243  135.7311  162.1031 O   0  0  0  0  0  0  0  0  0  0  0  0
  130.3922  136.4232  160.0487 C   0  0  0  0  0  0  0  0  0  0  0  0
  130.0488  134.9964  159.6161 C   0  0  2  0  0  0  0  0  0  0  0  0
  130.4899  134.7853  158.2352 N   0  0  0  0  0  0  0  0  0  0  0  0
  130.2852  133.5607  157.6227 C   0  0  0  0  0  0  0  0  0  0  0  0
  129.6885  132.4790  158.1934 N   0  0  0  0  0  0  0  0  0  0  0  0
  129.3337  132.4274  159.0946 H   0  0  0  0  0  0  0  0  0  0  0  0
  129.6820  131.4729  157.2566 C   0  0  0  0  0  0  0  0  0  0  0  0
  130.2743  131.9691  156.1424 C   0  0  0  0  0  0  0  0  0  0  0  0
  130.4910  131.2382  154.8698 C   0  0  0  0  0  0  0  0  0  0  0  0
  129.9209  131.7099  153.6882 C   0  0  0  0  0  0  0  0  0  0  0  0
  130.1288  131.0324  152.5054 C   0  0  0  0  0  0  0  0  0  0  0  0
  130.8958  129.8732  152.4926 C   0  0  0  0  0  0  0  0  0  0  0  0
  131.0998  129.1851  151.2942 N   0  0  0  0  0  0  0  0  0  0  0  0
  131.4600  129.3980  153.6704 C   0  0  0  0  0  0  0  0  0  0  0  0
  131.2601  130.0757  154.8545 C   0  0  0  0  0  0  0  0  0  0  0  0
  130.6338  133.2520  156.3973 N   0  0  0  0  0  0  0  0  0  0  0  0
  131.0748  133.8475  155.7713 H   0  0  0  0  0  0  0  0  0  0  0  0
  128.5586  134.7897  159.7045 C   0  0  0  0  0  0  0  0  0  0  0  0
  127.6882  135.5729  158.9619 C   0  0  0  0  0  0  0  0  0  0  0  0
  126.3278  135.3514  159.0657 C   0  0  0  0  0  0  0  0  0  0  0  0
  125.8557  134.4159  159.8653 N   0  0  0  0  0  0  0  0  0  0  0  0
  126.6536  133.6553  160.5901 C   0  0  0  0  0  0  0  0  0  0  0  0
  128.0253  133.8157  160.5347 C   0  0  0  0  0  0  0  0  0  0  0  0
  129.1735  138.3171  162.7853 C   0  0  0  0  0  0  0  0  0  0  0  0
  129.0344  139.6339  163.1821 C   0  0  0  0  0  0  0  0  0  0  0  0
  129.2268  142.5526  162.4780 H   0  0  0  0  0  0  0  0  0  0  0  0
  129.3056  142.0509  164.1840 H   0  0  0  0  0  0  0  0  0  0  0  0
  130.7981  142.4718  163.3103 H   0  0  0  0  0  0  0  0  0  0  0  0
  131.7709  140.9362  161.7009 H   0  0  0  0  0  0  0  0  0  0  0  0
  132.0226  138.5890  161.0002 H   0  0  0  0  0  0  0  0  0  0  0  0
  132.5479  136.5952  161.7756 H   0  0  0  0  0  0  0  0  0  0  0  0
  131.7052  135.9285  163.1947 H   0  0  0  0  0  0  0  0  0  0  0  0
  131.8840  134.9446  161.7223 H   0  0  0  0  0  0  0  0  0  0  0  0
  129.3588  134.7942  161.8665 H   0  0  0  0  0  0  0  0  0  0  0  0
  131.3750  136.6935  159.6623 H   0  0  0  0  0  0  0  0  0  0  0  0
  129.6450  137.1121  159.6546 H   0  0  0  0  0  0  0  0  0  0  0  0
  130.5536  134.2867  160.2713 H   0  0  0  0  0  0  0  0  0  0  0  0
  130.9255  135.5034  157.7499 H   0  0  0  0  0  0  0  0  0  0  0  0
  129.2823  130.4776  157.3839 H   0  0  0  0  0  0  0  0  0  0  0  0
  129.3210  132.6078  153.6984 H   0  0  0  0  0  0  0  0  0  0  0  0
  129.6916  131.4001  151.5888 H   0  0  0  0  0  0  0  0  0  0  0  0
  131.6349  128.3762  151.2844 H   0  0  0  0  0  0  0  0  0  0  0  0
  130.7059  129.5161  150.4717 H   0  0  0  0  0  0  0  0  0  0  0  0
  132.0556  128.4971  153.6582 H   0  0  0  0  0  0  0  0  0  0  0  0
  131.6992  129.7062  155.7694 H   0  0  0  0  0  0  0  0  0  0  0  0
  128.0684  136.3438  158.3083 H   0  0  0  0  0  0  0  0  0  0  0  0
  125.6433  135.9549  158.4881 H   0  0  0  0  0  0  0  0  0  0  0  0
  126.2303  132.8989  161.2343 H   0  0  0  0  0  0  0  0  0  0  0  0
  128.6735  133.1900  161.1303 H   0  0  0  0  0  0  0  0  0  0  0  0
  128.4424  137.5819  163.0878 H   0  0  0  0  0  0  0  0  0  0  0  0
  128.1953  139.9273  163.7954 H   0  0  0  0  0  0  0  0  0  0  0  0
  1  2  1  0
  1 34  1  0
  1 35  1  0
  1 36  1  0
  2 33  2  0
  2  3  1  0
  3  4  2  0
  3 37  1  0
  4  5  1  0
  4 38  1  0
  5  6  1  0
  5 32  2  0
  6  7  1  0
  6  8  1  1
  6  9  1  0
  7 39  1  0
  7 40  1  0
  7 41  1  0
  8 42  1  0
  9 10  1  0
  9 43  1  0
  9 44  1  0
 10 11  1  0
 10 26  1  0
 10 45  1  1
 11 46  1  0
 12 11  1  0
 12 24  2  0
 12 13  1  0
 13 14  1  0
 13 15  1  0
 15 16  2  0
 15 47  1  0
 16 17  1  0
 16 24  1  0
 17 23  1  0
 17 18  2  0
 18 19  1  0
 18 48  1  0
 19 20  2  0
 19 49  1  0
 20 21  1  0
 20 22  1  0
 21 50  1  0
 21 51  1  0
 22 23  2  0
 22 52  1  0
 23 53  1  0
 24 25  1  0
 26 31  1  0
 26 27  2  0
 27 28  1  0
 27 54  1  0
 28 29  2  0
 28 55  1  0
 29 30  1  0
 30 31  2  0
 30 56  1  0
 31 57  1  0
 32 33  1  0
 32 58  1  0
 33 59  1  0
M  CHG  1  24   1
M  END
>  <DOCK_score>  (1) 
-59.217136

>  <SMILES>  (1) 
Cc1ccc([C@@](C)(O)CC(Nc2[nH]cc(-c3ccc(N)cc3)[nH+]2)c2ccncc2)cc1

$$$$
