CC1C([NH2+]C2c3ccccc3-c3ccc(O)cc32)C[C@@H]1O
     RDKit          3D

 41 44  0  0  1  0  0  0  0  0999 V2000
  130.6367  136.3352  162.6928 C   0  0  0  0  0  0  0  0  0  0  0  0
  131.2934  136.4749  161.3180 C   0  0  1  0  0  0  0  0  0  0  0  0
  130.3703  136.0847  160.1517 C   0  0  1  0  0  0  0  0  0  0  0  0
  129.3159  135.1338  160.5286 N   0  0  0  0  0  0  0  0  0  0  0  0
  128.7370  135.5411  161.2477 H   0  0  0  0  0  0  0  0  0  0  0  0
  129.7369  134.2852  160.8762 H   0  0  0  0  0  0  0  0  0  0  0  0
  128.4915  134.8254  159.3525 C   0  0  1  0  0  0  0  0  0  0  0  0
  129.1457  133.7434  158.5287 C   0  0  0  0  0  0  0  0  0  0  0  0
  130.3602  133.6814  157.8787 C   0  0  0  0  0  0  0  0  0  0  0  0
  130.7149  132.5405  157.1810 C   0  0  0  0  0  0  0  0  0  0  0  0
  129.8525  131.4598  157.1340 C   0  0  0  0  0  0  0  0  0  0  0  0
  128.6360  131.5128  157.7816 C   0  0  0  0  0  0  0  0  0  0  0  0
  128.2710  132.6611  158.4873 C   0  0  0  0  0  0  0  0  0  0  0  0
  127.0467  132.9851  159.2603 C   0  0  0  0  0  0  0  0  0  0  0  0
  125.8942  132.2369  159.5116 C   0  0  0  0  0  0  0  0  0  0  0  0
  124.8775  132.7711  160.2732 C   0  0  0  0  0  0  0  0  0  0  0  0
  124.9939  134.0534  160.7930 C   0  0  0  0  0  0  0  0  0  0  0  0
  123.9891  134.5762  161.5437 O   0  0  0  0  0  0  0  0  0  0  0  0
  126.1350  134.8032  160.5409 C   0  0  0  0  0  0  0  0  0  0  0  0
  127.1563  134.2703  159.7850 C   0  0  0  0  0  0  0  0  0  0  0  0
  129.9012  137.5492  160.1333 C   0  0  0  0  0  0  0  0  0  0  0  0
  131.2582  137.9095  160.7605 C   0  0  2  0  0  0  0  0  0  0  0  0
  131.1928  138.6771  161.5318 H   0  0  0  0  0  0  0  0  0  0  0  0
  132.2816  138.1733  159.7987 O   0  0  0  0  0  0  0  0  0  0  0  0
  130.3363  135.2991  162.8483 H   0  0  0  0  0  0  0  0  0  0  0  0
  131.3470  136.6276  163.4661 H   0  0  0  0  0  0  0  0  0  0  0  0
  129.7589  136.9794  162.7433 H   0  0  0  0  0  0  0  0  0  0  0  0
  132.2784  136.0106  161.2693 H   0  0  0  0  0  0  0  0  0  0  0  0
  130.9068  135.7867  159.2510 H   0  0  0  0  0  0  0  0  0  0  0  0
  128.3477  135.7214  158.7488 H   0  0  0  0  0  0  0  0  0  0  0  0
  131.0348  134.5241  157.9138 H   0  0  0  0  0  0  0  0  0  0  0  0
  131.6666  132.4935  156.6727 H   0  0  0  0  0  0  0  0  0  0  0  0
  130.1332  130.5710  156.5884 H   0  0  0  0  0  0  0  0  0  0  0  0
  127.9656  130.6669  157.7424 H   0  0  0  0  0  0  0  0  0  0  0  0
  125.7999  131.2392  159.1090 H   0  0  0  0  0  0  0  0  0  0  0  0
  123.9877  132.1904  160.4667 H   0  0  0  0  0  0  0  0  0  0  0  0
  124.1611  135.4733  161.8609 H   0  0  0  0  0  0  0  0  0  0  0  0
  126.2241  135.8023  160.9413 H   0  0  0  0  0  0  0  0  0  0  0  0
  129.7637  137.9509  159.1293 H   0  0  0  0  0  0  0  0  0  0  0  0
  129.0519  137.7440  160.7881 H   0  0  0  0  0  0  0  0  0  0  0  0
  132.2723  137.5733  159.0402 H   0  0  0  0  0  0  0  0  0  0  0  0
  1  2  1  0
  1 25  1  0
  1 26  1  0
  1 27  1  0
  2 22  1  0
  2  3  1  0
  2 28  1  1
  3  4  1  0
  3 21  1  0
  3 29  1  6
  4  5  1  0
  4  6  1  0
  4  7  1  0
  7 20  1  0
  7  8  1  0
  7 30  1  6
  8 13  1  0
  8  9  2  0
  9 10  1  0
  9 31  1  0
 10 11  2  0
 10 32  1  0
 11 12  1  0
 11 33  1  0
 12 13  2  0
 12 34  1  0
 13 14  1  0
 14 20  2  0
 14 15  1  0
 15 16  2  0
 15 35  1  0
 16 17  1  0
 16 36  1  0
 17 18  1  0
 17 19  2  0
 18 37  1  0
 19 20  1  0
 19 38  1  0
 21 22  1  0
 21 39  1  0
 21 40  1  0
 22 23  1  1
 22 24  1  0
 24 41  1  0
M  CHG  1   4   1
M  END
>  <DOCK_score>  (1) 
-42.289436

>  <SMILES>  (1) 
CC1C([NH2+]C2c3ccccc3-c3ccc(O)cc32)C[C@@H]1O

$$$$
