Fc1ccccc1-c1ccc(-c2c[nH]c(NC(c3ccccc3)c3ccccc3)[nH+]2)cc1
     RDKit          3D

 55 59  0  0  1  0  0  0  0  0999 V2000
  129.9792  131.8948  151.4826 F   0  0  0  0  0  0  0  0  0  0  0  0
  130.2045  130.5631  151.4523 C   0  0  0  0  0  0  0  0  0  0  0  0
  130.1911  129.8850  150.2473 C   0  0  0  0  0  0  0  0  0  0  0  0
  130.4227  128.5222  150.2161 C   0  0  0  0  0  0  0  0  0  0  0  0
  130.6685  127.8291  151.3881 C   0  0  0  0  0  0  0  0  0  0  0  0
  130.6895  128.4952  152.5965 C   0  0  0  0  0  0  0  0  0  0  0  0
  130.4521  129.8677  152.6374 C   0  0  0  0  0  0  0  0  0  0  0  0
  130.4686  130.5880  153.9334 C   0  0  0  0  0  0  0  0  0  0  0  0
  131.2759  130.1307  154.9751 C   0  0  0  0  0  0  0  0  0  0  0  0
  131.2915  130.8000  156.1788 C   0  0  0  0  0  0  0  0  0  0  0  0
  130.4999  131.9347  156.3562 C   0  0  0  0  0  0  0  0  0  0  0  0
  130.5165  132.6548  157.6520 C   0  0  0  0  0  0  0  0  0  0  0  0
  130.1794  132.1349  158.8589 C   0  0  0  0  0  0  0  0  0  0  0  0
  130.3317  133.1402  159.7824 N   0  0  0  0  0  0  0  0  0  0  0  0
  130.1632  133.0751  160.7355 H   0  0  0  0  0  0  0  0  0  0  0  0
  130.7624  134.2445  159.1136 C   0  0  0  0  0  0  0  0  0  0  0  0
  131.0372  135.4759  159.6832 N   0  0  0  0  0  0  0  0  0  0  0  0
  130.3095  135.9087  160.8789 C   0  0  0  0  0  0  0  0  0  0  0  0
  130.7931  137.2742  161.2945 C   0  0  0  0  0  0  0  0  0  0  0  0
  130.7634  137.6419  162.6267 C   0  0  0  0  0  0  0  0  0  0  0  0
  131.2116  138.8927  163.0085 C   0  0  0  0  0  0  0  0  0  0  0  0
  131.6796  139.7794  162.0568 C   0  0  0  0  0  0  0  0  0  0  0  0
  131.7043  139.4135  160.7240 C   0  0  0  0  0  0  0  0  0  0  0  0
  131.2610  138.1608  160.3429 C   0  0  0  0  0  0  0  0  0  0  0  0
  128.8347  135.9692  160.5747 C   0  0  0  0  0  0  0  0  0  0  0  0
  127.9120  135.7308  161.5761 C   0  0  0  0  0  0  0  0  0  0  0  0
  126.5593  135.7910  161.2982 C   0  0  0  0  0  0  0  0  0  0  0  0
  126.1292  136.0794  160.0164 C   0  0  0  0  0  0  0  0  0  0  0  0
  127.0520  136.3125  159.0139 C   0  0  0  0  0  0  0  0  0  0  0  0
  128.4046  136.2575  159.2930 C   0  0  0  0  0  0  0  0  0  0  0  0
  130.8746  133.9499  157.8414 N   0  0  0  0  0  0  0  0  0  0  0  0
  131.1634  134.5612  157.1459 H   0  0  0  0  0  0  0  0  0  0  0  0
  129.6885  132.3885  155.3163 C   0  0  0  0  0  0  0  0  0  0  0  0
  129.6768  131.7222  154.1109 C   0  0  0  0  0  0  0  0  0  0  0  0
  129.9998  130.4206  149.3293 H   0  0  0  0  0  0  0  0  0  0  0  0
  130.4112  127.9965  149.2727 H   0  0  0  0  0  0  0  0  0  0  0  0
  130.8486  126.7647  151.3567 H   0  0  0  0  0  0  0  0  0  0  0  0
  130.8859  127.9530  153.5095 H   0  0  0  0  0  0  0  0  0  0  0  0
  131.8887  129.2522  154.8376 H   0  0  0  0  0  0  0  0  0  0  0  0
  131.9166  130.4460  156.9853 H   0  0  0  0  0  0  0  0  0  0  0  0
  129.8502  131.1252  159.0553 H   0  0  0  0  0  0  0  0  0  0  0  0
  131.7116  136.0522  159.2908 H   0  0  0  0  0  0  0  0  0  0  0  0
  130.4849  135.1993  161.6875 H   0  0  0  0  0  0  0  0  0  0  0  0
  130.3937  136.9508  163.3696 H   0  0  0  0  0  0  0  0  0  0  0  0
  131.1919  139.1787  164.0497 H   0  0  0  0  0  0  0  0  0  0  0  0
  132.0255  140.7583  162.3545 H   0  0  0  0  0  0  0  0  0  0  0  0
  132.0695  140.1064  159.9805 H   0  0  0  0  0  0  0  0  0  0  0  0
  131.2800  137.8750  159.3015 H   0  0  0  0  0  0  0  0  0  0  0  0
  128.2482  135.5012  162.5764 H   0  0  0  0  0  0  0  0  0  0  0  0
  125.8384  135.6085  162.0814 H   0  0  0  0  0  0  0  0  0  0  0  0
  125.0723  136.1220  159.7982 H   0  0  0  0  0  0  0  0  0  0  0  0
  126.7159  136.5374  158.0123 H   0  0  0  0  0  0  0  0  0  0  0  0
  129.1255  136.4393  158.5096 H   0  0  0  0  0  0  0  0  0  0  0  0
  129.0721  133.2645  155.4552 H   0  0  0  0  0  0  0  0  0  0  0  0
  129.0517  132.0758  153.3045 H   0  0  0  0  0  0  0  0  0  0  0  0
  1  2  1  0
  2  7  2  0
  2  3  1  0
  3  4  2  0
  3 35  1  0
  4  5  1  0
  4 36  1  0
  5  6  2  0
  5 37  1  0
  6  7  1  0
  6 38  1  0
  7  8  1  0
  8 34  1  0
  8  9  2  0
  9 10  1  0
  9 39  1  0
 10 11  2  0
 10 40  1  0
 11 12  1  0
 11 33  1  0
 12 31  1  0
 12 13  2  0
 13 14  1  0
 13 41  1  0
 14 15  1  0
 14 16  1  0
 16 17  1  0
 16 31  2  0
 17 18  1  0
 17 42  1  0
 18 19  1  0
 18 25  1  0
 18 43  1  0
 19 24  1  0
 19 20  2  0
 20 21  1  0
 20 44  1  0
 21 22  2  0
 21 45  1  0
 22 23  1  0
 22 46  1  0
 23 24  2  0
 23 47  1  0
 24 48  1  0
 25 30  1  0
 25 26  2  0
 26 27  1  0
 26 49  1  0
 27 28  2  0
 27 50  1  0
 28 29  1  0
 28 51  1  0
 29 30  2  0
 29 52  1  0
 30 53  1  0
 31 32  1  0
 33 34  2  0
 33 54  1  0
 34 55  1  0
M  CHG  1  31   1
M  END
>  <DOCK_score>  (1) 
-61.586109

>  <SMILES>  (1) 
Fc1ccccc1-c1ccc(-c2c[nH]c(NC(c3ccccc3)c3ccccc3)[nH+]2)cc1

$$$$
