Cc1c[nH]c(Nc2ccc(N)cc2Cl)[nH+]1
     RDKit          3D

 27 28  0  0  1  0  0  0  0  0999 V2000
  130.9573  131.8367  155.8313 C   0  0  0  0  0  0  0  0  0  0  0  0
  130.3009  132.6762  156.8969 C   0  0  0  0  0  0  0  0  0  0  0  0
  129.3241  132.2717  157.7267 C   0  0  0  0  0  0  0  0  0  0  0  0
  129.0158  133.3418  158.5355 N   0  0  0  0  0  0  0  0  0  0  0  0
  128.3499  133.3591  159.2405 H   0  0  0  0  0  0  0  0  0  0  0  0
  129.8263  134.3691  158.1624 C   0  0  0  0  0  0  0  0  0  0  0  0
  129.8408  135.6352  158.7247 N   0  0  0  0  0  0  0  0  0  0  0  0
  128.9660  135.9456  159.7743 C   0  0  0  0  0  0  0  0  0  0  0  0
  129.4713  136.3483  161.0032 C   0  0  0  0  0  0  0  0  0  0  0  0
  128.6094  136.6547  162.0376 C   0  0  0  0  0  0  0  0  0  0  0  0
  127.2366  136.5596  161.8494 C   0  0  0  0  0  0  0  0  0  0  0  0
  126.3635  136.8707  162.8980 N   0  0  0  0  0  0  0  0  0  0  0  0
  126.7303  136.1566  160.6208 C   0  0  0  0  0  0  0  0  0  0  0  0
  127.5924  135.8559  159.5837 C   0  0  0  0  0  0  0  0  0  0  0  0
  126.9601  135.3598  158.0450 Cl  0  0  0  0  0  0  0  0  0  0  0  0
  130.5918  133.9571  157.1794 N   0  0  0  0  0  0  0  0  0  0  0  0
  131.2624  134.4931  156.7278 H   0  0  0  0  0  0  0  0  0  0  0  0
  131.8216  131.3242  156.2536 H   0  0  0  0  0  0  0  0  0  0  0  0
  130.2449  131.1008  155.4584 H   0  0  0  0  0  0  0  0  0  0  0  0
  131.2801  132.4780  155.0112 H   0  0  0  0  0  0  0  0  0  0  0  0
  128.8682  131.2930  157.7541 H   0  0  0  0  0  0  0  0  0  0  0  0
  130.4563  136.3067  158.3917 H   0  0  0  0  0  0  0  0  0  0  0  0
  130.5387  136.4223  161.1501 H   0  0  0  0  0  0  0  0  0  0  0  0
  129.0029  136.9685  162.9932 H   0  0  0  0  0  0  0  0  0  0  0  0
  126.7170  137.1526  163.7561 H   0  0  0  0  0  0  0  0  0  0  0  0
  125.4047  136.8043  162.7666 H   0  0  0  0  0  0  0  0  0  0  0  0
  125.6629  136.0824  160.4747 H   0  0  0  0  0  0  0  0  0  0  0  0
  1  2  1  0
  1 18  1  0
  1 19  1  0
  1 20  1  0
  2 16  1  0
  2  3  2  0
  3  4  1  0
  3 21  1  0
  4  5  1  0
  4  6  1  0
  6  7  1  0
  6 16  2  0
  7  8  1  0
  7 22  1  0
  8 14  1  0
  8  9  2  0
  9 10  1  0
  9 23  1  0
 10 11  2  0
 10 24  1  0
 11 12  1  0
 11 13  1  0
 12 25  1  0
 12 26  1  0
 13 14  2  0
 13 27  1  0
 14 15  1  0
 16 17  1  0
M  CHG  1  16   1
M  END
>  <DOCK_score>  (1) 
-42.994003

>  <SMILES>  (1) 
Cc1c[nH]c(Nc2ccc(N)cc2Cl)[nH+]1

$$$$
