Cn1nccc1C(Nc1[nH]cc(-c2ccc(N)cc2)[nH+]1)[C@H]1CC(=O)CCC1=O
     RDKit          3D

 51 54  0  0  1  0  0  0  0  0999 V2000
  128.1267  136.1125  157.7320 C   0  0  0  0  0  0  0  0  0  0  0  0
  127.6169  135.6088  159.0098 N   0  0  0  0  0  0  0  0  0  0  0  0
  126.2704  135.4012  159.3356 N   0  0  0  0  0  0  0  0  0  0  0  0
  126.2118  134.9466  160.5610 C   0  0  0  0  0  0  0  0  0  0  0  0
  127.5173  134.8455  161.0524 C   0  0  0  0  0  0  0  0  0  0  0  0
  128.3615  135.2634  160.0808 C   0  0  0  0  0  0  0  0  0  0  0  0
  129.8641  135.3256  160.1759 C   0  0  1  0  0  0  0  0  0  0  0  0
  130.4465  135.1140  158.8484 N   0  0  0  0  0  0  0  0  0  0  0  0
  130.2032  133.9344  158.1656 C   0  0  0  0  0  0  0  0  0  0  0  0
  129.4390  132.9021  158.6147 N   0  0  0  0  0  0  0  0  0  0  0  0
  128.9714  132.8600  159.4635 H   0  0  0  0  0  0  0  0  0  0  0  0
  129.4524  131.9294  157.6432 C   0  0  0  0  0  0  0  0  0  0  0  0
  130.2238  132.3960  156.6303 C   0  0  0  0  0  0  0  0  0  0  0  0
  130.5255  131.6848  155.3639 C   0  0  0  0  0  0  0  0  0  0  0  0
  130.1550  132.2461  154.1428 C   0  0  0  0  0  0  0  0  0  0  0  0
  130.4417  131.5861  152.9665 C   0  0  0  0  0  0  0  0  0  0  0  0
  131.0891  130.3566  152.9982 C   0  0  0  0  0  0  0  0  0  0  0  0
  131.3728  129.6869  151.8056 N   0  0  0  0  0  0  0  0  0  0  0  0
  131.4543  129.7924  154.2148 C   0  0  0  0  0  0  0  0  0  0  0  0
  131.1748  130.4515  155.3933 C   0  0  0  0  0  0  0  0  0  0  0  0
  130.6663  133.6304  156.9777 N   0  0  0  0  0  0  0  0  0  0  0  0
  131.2364  134.1968  156.4345 H   0  0  0  0  0  0  0  0  0  0  0  0
  130.2853  136.6982  160.7047 C   0  0  1  0  0  0  0  0  0  0  0  0
  129.9328  137.4754  160.0267 H   0  0  0  0  0  0  0  0  0  0  0  0
  129.6843  136.9195  162.0986 C   0  0  0  0  0  0  0  0  0  0  0  0
  130.3256  138.1453  162.7104 C   0  0  0  0  0  0  0  0  0  0  0  0
  129.6433  139.0593  163.1067 O   0  0  0  0  0  0  0  0  0  0  0  0
  131.8324  138.2083  162.8150 C   0  0  0  0  0  0  0  0  0  0  0  0
  132.4296  137.9888  161.4192 C   0  0  0  0  0  0  0  0  0  0  0  0
  131.7920  136.7612  160.8094 C   0  0  0  0  0  0  0  0  0  0  0  0
  132.4743  135.8473  160.4126 O   0  0  0  0  0  0  0  0  0  0  0  0
  128.3163  135.2748  157.0608 H   0  0  0  0  0  0  0  0  0  0  0  0
  127.3891  136.7778  157.2833 H   0  0  0  0  0  0  0  0  0  0  0  0
  129.0543  136.6596  157.9012 H   0  0  0  0  0  0  0  0  0  0  0  0
  125.3109  134.6900  161.0988 H   0  0  0  0  0  0  0  0  0  0  0  0
  127.8015  134.4976  162.0347 H   0  0  0  0  0  0  0  0  0  0  0  0
  130.2177  134.5503  160.8555 H   0  0  0  0  0  0  0  0  0  0  0  0
  131.0028  135.8003  158.4478 H   0  0  0  0  0  0  0  0  0  0  0  0
  128.9457  130.9763  157.6797 H   0  0  0  0  0  0  0  0  0  0  0  0
  129.6476  133.1992  154.1178 H   0  0  0  0  0  0  0  0  0  0  0  0
  130.1591  132.0227  152.0200 H   0  0  0  0  0  0  0  0  0  0  0  0
  131.8244  128.8285  151.8270 H   0  0  0  0  0  0  0  0  0  0  0  0
  131.1183  130.0798  150.9563 H   0  0  0  0  0  0  0  0  0  0  0  0
  131.9569  128.8368  154.2373 H   0  0  0  0  0  0  0  0  0  0  0  0
  131.4584  130.0128  156.3385 H   0  0  0  0  0  0  0  0  0  0  0  0
  128.6081  137.0699  162.0136 H   0  0  0  0  0  0  0  0  0  0  0  0
  129.8867  136.0516  162.7263 H   0  0  0  0  0  0  0  0  0  0  0  0
  132.1851  137.4291  163.4906 H   0  0  0  0  0  0  0  0  0  0  0  0
  132.1325  139.1861  163.1918 H   0  0  0  0  0  0  0  0  0  0  0  0
  133.5062  137.8396  161.5012 H   0  0  0  0  0  0  0  0  0  0  0  0
  132.2272  138.8564  160.7912 H   0  0  0  0  0  0  0  0  0  0  0  0
  1  2  1  0
  1 32  1  0
  1 33  1  0
  1 34  1  0
  2  6  1  0
  2  3  1  0
  3  4  2  0
  4  5  1  0
  4 35  1  0
  5  6  2  0
  5 36  1  0
  6  7  1  0
  7  8  1  0
  7 23  1  0
  7 37  1  1
  8 38  1  0
  9  8  1  0
  9 21  2  0
  9 10  1  0
 10 11  1  0
 10 12  1  0
 12 13  2  0
 12 39  1  0
 13 14  1  0
 13 21  1  0
 14 20  1  0
 14 15  2  0
 15 16  1  0
 15 40  1  0
 16 17  2  0
 16 41  1  0
 17 18  1  0
 17 19  1  0
 18 42  1  0
 18 43  1  0
 19 20  2  0
 19 44  1  0
 20 45  1  0
 21 22  1  0
 23 24  1  6
 23 30  1  0
 23 25  1  0
 25 26  1  0
 25 46  1  0
 25 47  1  0
 26 27  2  0
 26 28  1  0
 28 29  1  0
 28 48  1  0
 28 49  1  0
 29 30  1  0
 29 50  1  0
 29 51  1  0
 30 31  2  0
M  CHG  1  21   1
M  END
>  <DOCK_score>  (1) 
-57.943768

>  <SMILES>  (1) 
Cn1nccc1C(Nc1[nH]cc(-c2ccc(N)cc2)[nH+]1)[C@H]1CC(=O)CCC1=O

$$$$
