Nc1ccc(-c2c[nH]c(Nc3ccc(-c4n[nH]cc4C[NH2+]CC4CC5C[C@@H]5C4)o3)n2)cc1
     RDKit          3D

 60 65  0  0  1  0  0  0  0  0999 V2000
  126.8962  142.3331  168.1576 N   0  0  0  0  0  0  0  0  0  0  0  0
  127.0021  141.3471  167.1737 C   0  0  0  0  0  0  0  0  0  0  0  0
  126.2172  141.4219  166.0292 C   0  0  0  0  0  0  0  0  0  0  0  0
  126.3199  140.4498  165.0567 C   0  0  0  0  0  0  0  0  0  0  0  0
  127.2122  139.3916  165.2220 C   0  0  0  0  0  0  0  0  0  0  0  0
  127.3247  138.3445  164.1771 C   0  0  0  0  0  0  0  0  0  0  0  0
  128.4388  137.6308  163.8792 C   0  0  0  0  0  0  0  0  0  0  0  0
  128.1035  136.7766  162.8562 N   0  0  0  0  0  0  0  0  0  0  0  0
  128.6918  136.1372  162.4252 H   0  0  0  0  0  0  0  0  0  0  0  0
  126.7930  136.9941  162.5595 C   0  0  0  0  0  0  0  0  0  0  0  0
  126.0668  136.3341  161.5816 N   0  0  0  0  0  0  0  0  0  0  0  0
  126.6748  135.3503  160.8089 C   0  0  0  0  0  0  0  0  0  0  0  0
  126.0550  134.2717  160.2683 C   0  0  0  0  0  0  0  0  0  0  0  0
  127.0344  133.5452  159.5634 C   0  0  0  0  0  0  0  0  0  0  0  0
  128.2072  134.2157  159.7148 C   0  0  0  0  0  0  0  0  0  0  0  0
  129.5111  133.8186  159.1446 C   0  0  0  0  0  0  0  0  0  0  0  0
  129.7428  132.7510  158.4063 N   0  0  0  0  0  0  0  0  0  0  0  0
  131.1020  132.7435  158.0676 N   0  0  0  0  0  0  0  0  0  0  0  0
  131.5498  132.0740  157.5273 H   0  0  0  0  0  0  0  0  0  0  0  0
  131.6821  133.8269  158.6281 C   0  0  0  0  0  0  0  0  0  0  0  0
  130.7307  134.5109  159.2988 C   0  0  0  0  0  0  0  0  0  0  0  0
  130.9351  135.7867  160.0745 C   0  0  0  0  0  0  0  0  0  0  0  0
  132.3461  136.1876  159.9943 N   0  0  0  0  0  0  0  0  0  0  0  0
  132.9253  135.4597  160.3853 H   0  0  0  0  0  0  0  0  0  0  0  0
  132.5991  136.3366  159.0289 H   0  0  0  0  0  0  0  0  0  0  0  0
  132.5454  137.4312  160.7504 C   0  0  0  0  0  0  0  0  0  0  0  0
  134.0150  137.8489  160.6669 C   0  0  2  0  0  0  0  0  0  0  0  0
  134.3325  138.9505  161.7084 C   0  0  0  0  0  0  0  0  0  0  0  0
  135.5667  139.6732  161.1301 C   0  0  2  0  0  0  0  0  0  0  0  0
  135.3362  140.8344  160.1609 C   0  0  0  0  0  0  0  0  0  0  0  0
  135.5517  139.4226  159.6121 C   0  0  2  0  0  0  0  0  0  0  0  0
  136.4605  139.2007  159.0527 H   0  0  0  0  0  0  0  0  0  0  0  0
  134.3090  138.5562  159.3207 C   0  0  0  0  0  0  0  0  0  0  0  0
  127.9761  135.3064  160.4750 O   0  0  0  0  0  0  0  0  0  0  0  0
  126.3329  137.9351  163.3477 N   0  0  0  0  0  0  0  0  0  0  0  0
  127.9946  139.3158  166.3733 C   0  0  0  0  0  0  0  0  0  0  0  0
  127.8924  140.2929  167.3407 C   0  0  0  0  0  0  0  0  0  0  0  0
  126.2753  143.0693  168.0417 H   0  0  0  0  0  0  0  0  0  0  0  0
  127.4436  142.2816  168.9567 H   0  0  0  0  0  0  0  0  0  0  0  0
  125.5259  142.2419  165.9015 H   0  0  0  0  0  0  0  0  0  0  0  0
  125.7099  140.5083  164.1675 H   0  0  0  0  0  0  0  0  0  0  0  0
  129.4048  137.7177  164.3543 H   0  0  0  0  0  0  0  0  0  0  0  0
  125.1344  136.5582  161.4358 H   0  0  0  0  0  0  0  0  0  0  0  0
  125.0084  134.0202  160.3573 H   0  0  0  0  0  0  0  0  0  0  0  0
  126.8828  132.6309  159.0090 H   0  0  0  0  0  0  0  0  0  0  0  0
  132.7248  134.0984  158.5529 H   0  0  0  0  0  0  0  0  0  0  0  0
  130.3095  136.5729  159.6521 H   0  0  0  0  0  0  0  0  0  0  0  0
  130.6618  135.6257  161.1172 H   0  0  0  0  0  0  0  0  0  0  0  0
  131.9198  138.2175  160.3281 H   0  0  0  0  0  0  0  0  0  0  0  0
  132.2722  137.2703  161.7932 H   0  0  0  0  0  0  0  0  0  0  0  0
  134.6682  136.9867  160.8010 H   0  0  0  0  0  0  0  0  0  0  0  0
  133.4944  139.6412  161.8007 H   0  0  0  0  0  0  0  0  0  0  0  0
  134.5693  138.5051  162.6747 H   0  0  0  0  0  0  0  0  0  0  0  0
  136.4936  139.6319  161.7023 H   0  0  0  0  0  0  0  0  0  0  0  0
  136.1469  141.5520  160.0345 H   0  0  0  0  0  0  0  0  0  0  0  0
  134.3294  141.2480  160.1029 H   0  0  0  0  0  0  0  0  0  0  0  0
  134.5284  137.8232  158.5445 H   0  0  0  0  0  0  0  0  0  0  0  0
  133.4661  139.1815  159.0263 H   0  0  0  0  0  0  0  0  0  0  0  0
  128.6832  138.4943  166.5056 H   0  0  0  0  0  0  0  0  0  0  0  0
  128.5013  140.2368  168.2309 H   0  0  0  0  0  0  0  0  0  0  0  0
  1  2  1  0
  1 38  1  0
  1 39  1  0
  2 37  2  0
  2  3  1  0
  3  4  2  0
  3 40  1  0
  4  5  1  0
  4 41  1  0
  5  6  1  0
  5 36  2  0
  6 35  1  0
  6  7  2  0
  7  8  1  0
  7 42  1  0
  8  9  1  0
  8 10  1  0
 10 11  1  0
 10 35  2  0
 11 12  1  0
 11 43  1  0
 12 34  1  0
 12 13  2  0
 13 14  1  0
 13 44  1  0
 14 15  2  0
 14 45  1  0
 15 16  1  0
 15 34  1  0
 16 21  1  0
 16 17  2  0
 17 18  1  0
 18 19  1  0
 18 20  1  0
 20 21  2  0
 20 46  1  0
 21 22  1  0
 22 23  1  0
 22 47  1  0
 22 48  1  0
 23 24  1  0
 23 25  1  0
 23 26  1  0
 26 27  1  0
 26 49  1  0
 26 50  1  0
 27 33  1  0
 27 28  1  0
 27 51  1  1
 28 29  1  0
 28 52  1  0
 28 53  1  0
 29 31  1  0
 29 30  1  0
 29 54  1  1
 30 31  1  0
 30 55  1  0
 30 56  1  0
 31 32  1  6
 31 33  1  0
 33 57  1  0
 33 58  1  0
 36 37  1  0
 36 59  1  0
 37 60  1  0
M  CHG  1  23   1
M  END
>  <DOCK_score>  (1) 
-51.704388

>  <SMILES>  (1) 
Nc1ccc(-c2c[nH]c(Nc3ccc(-c4n[nH]cc4C[NH2+]CC4CC5C[C@@H]5C4)o3)n2)cc1

$$$$
