C[C@H](Cl)C(Cc1ccccc1)N1CC[NH+](Cc2ccc(N[C@H](C)c3ccoc3)cc2)CC1
     RDKit          3D

 67 70  0  0  1  0  0  0  0  0999 V2000
  129.4752  130.1793  159.0403 C   0  0  0  0  0  0  0  0  0  0  0  0
  130.2309  130.2291  157.7108 C   0  0  2  0  0  0  0  0  0  0  0  0
  129.8820  129.4240  157.0643 H   0  0  0  0  0  0  0  0  0  0  0  0
  131.9971  130.0325  158.0158 Cl  0  0  0  0  0  0  0  0  0  0  0  0
  129.9777  131.5757  157.0303 C   0  0  2  0  0  0  0  0  0  0  0  0
  131.0754  131.8398  155.9978 C   0  0  0  0  0  0  0  0  0  0  0  0
  130.7740  131.0720  154.7366 C   0  0  0  0  0  0  0  0  0  0  0  0
  131.2606  129.7881  154.5761 C   0  0  0  0  0  0  0  0  0  0  0  0
  130.9799  129.0819  153.4213 C   0  0  0  0  0  0  0  0  0  0  0  0
  130.2216  129.6635  152.4226 C   0  0  0  0  0  0  0  0  0  0  0  0
  129.7396  130.9493  152.5807 C   0  0  0  0  0  0  0  0  0  0  0  0
  130.0157  131.6536  153.7378 C   0  0  0  0  0  0  0  0  0  0  0  0
  129.9872  132.6437  158.0391 N   0  0  0  0  0  0  0  0  0  0  0  0
  131.3601  132.9634  158.4547 C   0  0  0  0  0  0  0  0  0  0  0  0
  131.3229  134.0354  159.5462 C   0  0  0  0  0  0  0  0  0  0  0  0
  130.6569  135.2381  159.0290 N   0  0  0  0  0  0  0  0  0  0  0  0
  131.1598  135.5808  158.2241 H   0  0  0  0  0  0  0  0  0  0  0  0
  130.6375  136.2732  160.0712 C   0  0  0  0  0  0  0  0  0  0  0  0
  131.9520  136.2690  160.8080 C   0  0  0  0  0  0  0  0  0  0  0  0
  132.1132  135.4726  161.9269 C   0  0  0  0  0  0  0  0  0  0  0  0
  133.3163  135.4667  162.6048 C   0  0  0  0  0  0  0  0  0  0  0  0
  134.3654  136.2620  162.1615 C   0  0  0  0  0  0  0  0  0  0  0  0
  135.5835  136.2589  162.8449 N   0  0  0  0  0  0  0  0  0  0  0  0
  135.7558  135.4161  164.0308 C   0  0  2  0  0  0  0  0  0  0  0  0
  135.2726  134.4532  163.8654 H   0  0  0  0  0  0  0  0  0  0  0  0
  135.1219  136.1037  165.2416 C   0  0  0  0  0  0  0  0  0  0  0  0
  137.2256  135.2030  164.2865 C   0  0  0  0  0  0  0  0  0  0  0  0
  137.9049  133.9635  164.3150 C   0  0  0  0  0  0  0  0  0  0  0  0
  139.1975  134.2333  164.5719 C   0  0  0  0  0  0  0  0  0  0  0  0
  139.3345  135.5622  164.7092 O   0  0  0  0  0  0  0  0  0  0  0  0
  138.1418  136.1555  164.5371 C   0  0  0  0  0  0  0  0  0  0  0  0
  134.1983  137.0649  161.0402 C   0  0  0  0  0  0  0  0  0  0  0  0
  132.9942  137.0620  160.3640 C   0  0  0  0  0  0  0  0  0  0  0  0
  129.2791  134.9083  158.6409 C   0  0  0  0  0  0  0  0  0  0  0  0
  129.2994  133.8437  157.5420 C   0  0  0  0  0  0  0  0  0  0  0  0
  128.4402  130.4819  158.8814 H   0  0  0  0  0  0  0  0  0  0  0  0
  129.5004  129.1635  159.4347 H   0  0  0  0  0  0  0  0  0  0  0  0
  129.9469  130.8571  159.7520 H   0  0  0  0  0  0  0  0  0  0  0  0
  129.0081  131.5547  156.5327 H   0  0  0  0  0  0  0  0  0  0  0  0
  131.1143  132.9058  155.7736 H   0  0  0  0  0  0  0  0  0  0  0  0
  132.0363  131.5174  156.3985 H   0  0  0  0  0  0  0  0  0  0  0  0
  131.8566  129.3353  155.3545 H   0  0  0  0  0  0  0  0  0  0  0  0
  131.3570  128.0775  153.2975 H   0  0  0  0  0  0  0  0  0  0  0  0
  130.0062  129.1135  151.5184 H   0  0  0  0  0  0  0  0  0  0  0  0
  129.1474  131.4039  151.8003 H   0  0  0  0  0  0  0  0  0  0  0  0
  129.6393  132.6583  153.8613 H   0  0  0  0  0  0  0  0  0  0  0  0
  131.9221  133.3358  157.5982 H   0  0  0  0  0  0  0  0  0  0  0  0
  131.8410  132.0656  158.8431 H   0  0  0  0  0  0  0  0  0  0  0  0
  132.3409  134.2842  159.8459 H   0  0  0  0  0  0  0  0  0  0  0  0
  130.7726  133.6575  160.4079 H   0  0  0  0  0  0  0  0  0  0  0  0
  129.8277  136.0684  160.7716 H   0  0  0  0  0  0  0  0  0  0  0  0
  130.4818  137.2490  159.6112 H   0  0  0  0  0  0  0  0  0  0  0  0
  131.2970  134.8547  162.2714 H   0  0  0  0  0  0  0  0  0  0  0  0
  133.4414  134.8447  163.4788 H   0  0  0  0  0  0  0  0  0  0  0  0
  136.3139  136.8176  162.5368 H   0  0  0  0  0  0  0  0  0  0  0  0
  134.0588  136.2577  165.0568 H   0  0  0  0  0  0  0  0  0  0  0  0
  135.2501  135.4765  166.1239 H   0  0  0  0  0  0  0  0  0  0  0  0
  135.6052  137.0666  165.4069 H   0  0  0  0  0  0  0  0  0  0  0  0
  137.4700  132.9876  164.1576 H   0  0  0  0  0  0  0  0  0  0  0  0
  139.9896  133.5043  164.6586 H   0  0  0  0  0  0  0  0  0  0  0  0
  137.9507  137.2171  164.5915 H   0  0  0  0  0  0  0  0  0  0  0  0
  135.0105  137.6878  160.6955 H   0  0  0  0  0  0  0  0  0  0  0  0
  132.8651  137.6828  159.4898 H   0  0  0  0  0  0  0  0  0  0  0  0
  128.7393  134.5261  159.5072 H   0  0  0  0  0  0  0  0  0  0  0  0
  128.7820  135.8045  158.2695 H   0  0  0  0  0  0  0  0  0  0  0  0
  129.8274  134.2306  156.6704 H   0  0  0  0  0  0  0  0  0  0  0  0
  128.2768  133.5881  157.2643 H   0  0  0  0  0  0  0  0  0  0  0  0
  1  2  1  0
  1 36  1  0
  1 37  1  0
  1 38  1  0
  2  3  1  6
  2  4  1  0
  2  5  1  0
  5  6  1  0
  5 13  1  0
  5 39  1  6
  6  7  1  0
  6 40  1  0
  6 41  1  0
  7 12  1  0
  7  8  2  0
  8  9  1  0
  8 42  1  0
  9 10  2  0
  9 43  1  0
 10 11  1  0
 10 44  1  0
 11 12  2  0
 11 45  1  0
 12 46  1  0
 13 35  1  0
 13 14  1  0
 14 15  1  0
 14 47  1  0
 14 48  1  0
 15 16  1  0
 15 49  1  0
 15 50  1  0
 16 17  1  0
 16 18  1  0
 16 34  1  0
 18 19  1  0
 18 51  1  0
 18 52  1  0
 19 33  1  0
 19 20  2  0
 20 21  1  0
 20 53  1  0
 21 22  2  0
 21 54  1  0
 22 23  1  0
 22 32  1  0
 23 24  1  0
 23 55  1  0
 24 25  1  6
 24 26  1  0
 24 27  1  0
 26 56  1  0
 26 57  1  0
 26 58  1  0
 27 31  2  0
 27 28  1  0
 28 29  2  0
 28 59  1  0
 29 30  1  0
 29 60  1  0
 30 31  1  0
 31 61  1  0
 32 33  2  0
 32 62  1  0
 33 63  1  0
 34 35  1  0
 34 64  1  0
 34 65  1  0
 35 66  1  0
 35 67  1  0
M  CHG  1  16   1
M  END
>  <DOCK_score>  (1) 
-62.407787

>  <SMILES>  (1) 
C[C@H](Cl)C(Cc1ccccc1)N1CC[NH+](Cc2ccc(N[C@H](C)c3ccoc3)cc2)CC1

$$$$
