Oc1cc(F)cc(C[NH+]=C(NCc2cc(F)cc3ccccc23)NC2CC=CC2)c1
     RDKit          3D

 54 57  0  0  1  0  0  0  0  0999 V2000
  124.7778  135.9973  163.5173 O   0  0  0  0  0  0  0  0  0  0  0  0
  126.0060  135.9888  164.0988 C   0  0  0  0  0  0  0  0  0  0  0  0
  126.1445  135.6004  165.4234 C   0  0  0  0  0  0  0  0  0  0  0  0
  127.3960  135.5933  166.0130 C   0  0  0  0  0  0  0  0  0  0  0  0
  127.5326  135.2158  167.3030 F   0  0  0  0  0  0  0  0  0  0  0  0
  128.5096  135.9680  165.2795 C   0  0  0  0  0  0  0  0  0  0  0  0
  128.3711  136.3603  163.9616 C   0  0  0  0  0  0  0  0  0  0  0  0
  129.5838  136.7734  163.1678 C   0  0  0  0  0  0  0  0  0  0  0  0
  129.5367  136.1484  161.8436 N   0  0  0  0  0  0  0  0  0  0  0  0
  128.7947  135.5706  161.6061 H   0  0  0  0  0  0  0  0  0  0  0  0
  130.4920  136.3688  160.9847 C   0  0  0  0  0  0  0  0  0  0  0  0
  131.5438  137.1876  161.3213 N   0  0  0  0  0  0  0  0  0  0  0  0
  132.6174  137.4352  160.3559 C   0  0  0  0  0  0  0  0  0  0  0  0
  133.6394  138.3587  160.9671 C   0  0  0  0  0  0  0  0  0  0  0  0
  133.5165  139.7062  160.8223 C   0  0  0  0  0  0  0  0  0  0  0  0
  134.4498  140.5771  161.3861 C   0  0  0  0  0  0  0  0  0  0  0  0
  134.2968  141.9101  161.2287 F   0  0  0  0  0  0  0  0  0  0  0  0
  135.5172  140.1014  162.0884 C   0  0  0  0  0  0  0  0  0  0  0  0
  135.6788  138.7158  162.2528 C   0  0  0  0  0  0  0  0  0  0  0  0
  136.7668  138.1883  162.9695 C   0  0  0  0  0  0  0  0  0  0  0  0
  136.8915  136.8403  163.1086 C   0  0  0  0  0  0  0  0  0  0  0  0
  135.9557  135.9717  162.5498 C   0  0  0  0  0  0  0  0  0  0  0  0
  134.8898  136.4460  161.8491 C   0  0  0  0  0  0  0  0  0  0  0  0
  134.7270  137.8323  161.6845 C   0  0  0  0  0  0  0  0  0  0  0  0
  130.4479  135.7821  159.7420 N   0  0  0  0  0  0  0  0  0  0  0  0
  129.3272  134.9094  159.3833 C   0  0  0  0  0  0  0  0  0  0  0  0
  129.3542  133.6031  160.2105 C   0  0  0  0  0  0  0  0  0  0  0  0
  128.8997  132.5300  159.2487 C   0  0  0  0  0  0  0  0  0  0  0  0
  128.9720  132.9450  158.0132 C   0  0  0  0  0  0  0  0  0  0  0  0
  129.4866  134.3641  157.9452 C   0  0  0  0  0  0  0  0  0  0  0  0
  127.1228  136.3688  163.3690 C   0  0  0  0  0  0  0  0  0  0  0  0
  124.7821  136.2825  162.5934 H   0  0  0  0  0  0  0  0  0  0  0  0
  125.2764  135.3045  165.9935 H   0  0  0  0  0  0  0  0  0  0  0  0
  129.4868  135.9577  165.7393 H   0  0  0  0  0  0  0  0  0  0  0  0
  130.4856  136.4527  163.6891 H   0  0  0  0  0  0  0  0  0  0  0  0
  129.5939  137.8577  163.0576 H   0  0  0  0  0  0  0  0  0  0  0  0
  131.5747  137.6014  162.1980 H   0  0  0  0  0  0  0  0  0  0  0  0
  133.0932  136.4908  160.0915 H   0  0  0  0  0  0  0  0  0  0  0  0
  132.2013  137.8958  159.4599 H   0  0  0  0  0  0  0  0  0  0  0  0
  132.6819  140.1077  160.2666 H   0  0  0  0  0  0  0  0  0  0  0  0
  136.2349  140.7862  162.5156 H   0  0  0  0  0  0  0  0  0  0  0  0
  137.5000  138.8493  163.4075 H   0  0  0  0  0  0  0  0  0  0  0  0
  137.7283  136.4376  163.6602 H   0  0  0  0  0  0  0  0  0  0  0  0
  136.0785  134.9059  162.6744 H   0  0  0  0  0  0  0  0  0  0  0  0
  134.1727  135.7608  161.4220 H   0  0  0  0  0  0  0  0  0  0  0  0
  131.1588  135.9461  159.1028 H   0  0  0  0  0  0  0  0  0  0  0  0
  128.3760  135.4281  159.5019 H   0  0  0  0  0  0  0  0  0  0  0  0
  130.3655  133.3960  160.5603 H   0  0  0  0  0  0  0  0  0  0  0  0
  128.6668  133.6732  161.0535 H   0  0  0  0  0  0  0  0  0  0  0  0
  128.5594  131.5487  159.5445 H   0  0  0  0  0  0  0  0  0  0  0  0
  128.6993  132.3521  157.1526 H   0  0  0  0  0  0  0  0  0  0  0  0
  128.8893  134.9516  157.2478 H   0  0  0  0  0  0  0  0  0  0  0  0
  130.5354  134.3756  157.6486 H   0  0  0  0  0  0  0  0  0  0  0  0
  127.0167  136.6718  162.3378 H   0  0  0  0  0  0  0  0  0  0  0  0
  1  2  1  0
  1 32  1  0
  2 31  2  0
  2  3  1  0
  3  4  2  0
  3 33  1  0
  4  5  1  0
  4  6  1  0
  6  7  2  0
  6 34  1  0
  7  8  1  0
  7 31  1  0
  8  9  1  0
  8 35  1  0
  8 36  1  0
  9 10  1  0
 11  9  2  0
 11 12  1  0
 11 25  1  0
 12 13  1  0
 12 37  1  0
 13 14  1  0
 13 38  1  0
 13 39  1  0
 14 24  1  0
 14 15  2  0
 15 16  1  0
 15 40  1  0
 16 17  1  0
 16 18  2  0
 18 19  1  0
 18 41  1  0
 19 24  2  0
 19 20  1  0
 20 21  2  0
 20 42  1  0
 21 22  1  0
 21 43  1  0
 22 23  2  0
 22 44  1  0
 23 24  1  0
 23 45  1  0
 25 26  1  0
 25 46  1  0
 26 30  1  0
 26 27  1  0
 26 47  1  0
 27 28  1  0
 27 48  1  0
 27 49  1  0
 28 29  2  0
 28 50  1  0
 29 30  1  0
 29 51  1  0
 30 52  1  0
 30 53  1  0
 31 54  1  0
M  CHG  1   9   1
M  END
>  <DOCK_score>  (1) 
-43.314968

>  <SMILES>  (1) 
Oc1cc(F)cc(C[NH+]=C(NCc2cc(F)cc3ccccc23)NC2CC=CC2)c1

$$$$
