CC1=CC[N@H+](C(Cc2ccc(O)cc2C(=O)Nc2nc3cnccc3[nH]2)c2ccc(C)cc2)C1
     RDKit          3D

 62 66  0  0  1  0  0  0  0  0999 V2000
  134.3344  137.4666  160.9329 C   0  0  0  0  0  0  0  0  0  0  0  0
  132.8853  137.1396  160.6801 C   0  0  0  0  0  0  0  0  0  0  0  0
  131.8924  137.9894  160.7638 C   0  0  0  0  0  0  0  0  0  0  0  0
  130.5966  137.2831  160.4394 C   0  0  0  0  0  0  0  0  0  0  0  0
  130.9933  136.0292  159.7555 N   0  0  2  0  0  0  0  0  0  0  0  0
  131.0191  136.1604  158.7555 H   0  0  0  0  0  0  0  0  0  0  0  0
  130.0840  134.9319  160.1123 C   0  0  1  0  0  0  0  0  0  0  0  0
  128.6582  135.2939  159.6920 C   0  0  0  0  0  0  0  0  0  0  0  0
  127.7254  134.1683  160.0578 C   0  0  0  0  0  0  0  0  0  0  0  0
  127.4892  133.1477  159.1595 C   0  0  0  0  0  0  0  0  0  0  0  0
  126.6299  132.1160  159.4890 C   0  0  0  0  0  0  0  0  0  0  0  0
  126.0026  132.0967  160.7277 C   0  0  0  0  0  0  0  0  0  0  0  0
  125.1586  131.0802  161.0459 O   0  0  0  0  0  0  0  0  0  0  0  0
  126.2366  133.1127  161.6386 C   0  0  0  0  0  0  0  0  0  0  0  0
  127.1037  134.1548  161.3075 C   0  0  0  0  0  0  0  0  0  0  0  0
  127.3582  135.2434  162.2745 C   0  0  0  0  0  0  0  0  0  0  0  0
  127.8408  134.9906  163.3610 O   0  0  0  0  0  0  0  0  0  0  0  0
  127.0551  136.5163  161.9513 N   0  0  0  0  0  0  0  0  0  0  0  0
  127.2930  137.5351  162.8564 C   0  0  0  0  0  0  0  0  0  0  0  0
  127.0374  138.8019  162.6468 N   0  0  0  0  0  0  0  0  0  0  0  0
  127.3871  139.5234  163.7414 C   0  0  0  0  0  0  0  0  0  0  0  0
  127.3400  140.8775  164.0726 C   0  0  0  0  0  0  0  0  0  0  0  0
  127.7644  141.2884  165.2496 N   0  0  0  0  0  0  0  0  0  0  0  0
  128.2465  140.4572  166.1578 C   0  0  0  0  0  0  0  0  0  0  0  0
  128.3302  139.1024  165.9147 C   0  0  0  0  0  0  0  0  0  0  0  0
  127.8957  138.6136  164.6888 C   0  0  0  0  0  0  0  0  0  0  0  0
  127.8245  137.3681  164.1043 N   0  0  0  0  0  0  0  0  0  0  0  0
  128.0999  136.5285  164.5043 H   0  0  0  0  0  0  0  0  0  0  0  0
  130.5128  133.6734  159.4027 C   0  0  0  0  0  0  0  0  0  0  0  0
  130.5528  133.6384  158.0214 C   0  0  0  0  0  0  0  0  0  0  0  0
  130.9503  132.4855  157.3705 C   0  0  0  0  0  0  0  0  0  0  0  0
  131.2989  131.3647  158.1008 C   0  0  0  0  0  0  0  0  0  0  0  0
  131.7285  130.1066  157.3911 C   0  0  0  0  0  0  0  0  0  0  0  0
  131.2538  131.3981  159.4820 C   0  0  0  0  0  0  0  0  0  0  0  0
  130.8604  132.5524  160.1329 C   0  0  0  0  0  0  0  0  0  0  0  0
  132.3526  135.7799  160.2913 C   0  0  0  0  0  0  0  0  0  0  0  0
  134.4286  138.5202  161.1966 H   0  0  0  0  0  0  0  0  0  0  0  0
  134.7081  136.8523  161.7520 H   0  0  0  0  0  0  0  0  0  0  0  0
  134.9150  137.2643  160.0328 H   0  0  0  0  0  0  0  0  0  0  0  0
  131.9854  139.0334  161.0244 H   0  0  0  0  0  0  0  0  0  0  0  0
  129.9870  137.8978  159.7771 H   0  0  0  0  0  0  0  0  0  0  0  0
  130.0488  137.0571  161.3543 H   0  0  0  0  0  0  0  0  0  0  0  0
  130.1151  134.7700  161.1898 H   0  0  0  0  0  0  0  0  0  0  0  0
  128.6271  135.4559  158.6144 H   0  0  0  0  0  0  0  0  0  0  0  0
  128.3481  136.2042  160.2052 H   0  0  0  0  0  0  0  0  0  0  0  0
  127.9742  133.1569  158.1946 H   0  0  0  0  0  0  0  0  0  0  0  0
  126.4453  131.3224  158.7801 H   0  0  0  0  0  0  0  0  0  0  0  0
  125.0586  130.4190  160.3473 H   0  0  0  0  0  0  0  0  0  0  0  0
  125.7495  133.0986  162.6026 H   0  0  0  0  0  0  0  0  0  0  0  0
  126.6698  136.7179  161.0843 H   0  0  0  0  0  0  0  0  0  0  0  0
  126.9539  141.5921  163.3606 H   0  0  0  0  0  0  0  0  0  0  0  0
  128.5814  140.8467  167.1078 H   0  0  0  0  0  0  0  0  0  0  0  0
  128.7259  138.4329  166.6642 H   0  0  0  0  0  0  0  0  0  0  0  0
  130.2769  134.5129  157.4507 H   0  0  0  0  0  0  0  0  0  0  0  0
  130.9859  132.4594  156.2914 H   0  0  0  0  0  0  0  0  0  0  0  0
  130.8559  129.4834  157.1959 H   0  0  0  0  0  0  0  0  0  0  0  0
  132.2074  130.3673  156.4473 H   0  0  0  0  0  0  0  0  0  0  0  0
  132.4333  129.5590  158.0170 H   0  0  0  0  0  0  0  0  0  0  0  0
  131.5261  130.5225  160.0525 H   0  0  0  0  0  0  0  0  0  0  0  0
  130.8253  132.5786  161.2120 H   0  0  0  0  0  0  0  0  0  0  0  0
  132.3008  135.1306  161.1654 H   0  0  0  0  0  0  0  0  0  0  0  0
  132.9844  135.3320  159.5243 H   0  0  0  0  0  0  0  0  0  0  0  0
  1  2  1  0
  1 37  1  0
  1 38  1  0
  1 39  1  0
  2 36  1  0
  2  3  2  0
  3  4  1  0
  3 40  1  0
  4  5  1  0
  4 41  1  0
  4 42  1  0
  5  6  1  6
  5  7  1  0
  5 36  1  0
  7  8  1  0
  7 29  1  0
  7 43  1  1
  8  9  1  0
  8 44  1  0
  8 45  1  0
  9 15  1  0
  9 10  2  0
 10 11  1  0
 10 46  1  0
 11 12  2  0
 11 47  1  0
 12 13  1  0
 12 14  1  0
 13 48  1  0
 14 15  2  0
 14 49  1  0
 15 16  1  0
 16 17  2  0
 16 18  1  0
 18 19  1  0
 18 50  1  0
 19 27  1  0
 19 20  2  0
 20 21  1  0
 21 26  2  0
 21 22  1  0
 22 23  2  0
 22 51  1  0
 23 24  1  0
 24 25  2  0
 24 52  1  0
 25 26  1  0
 25 53  1  0
 26 27  1  0
 27 28  1  0
 29 35  1  0
 29 30  2  0
 30 31  1  0
 30 54  1  0
 31 32  2  0
 31 55  1  0
 32 33  1  0
 32 34  1  0
 33 56  1  0
 33 57  1  0
 33 58  1  0
 34 35  2  0
 34 59  1  0
 35 60  1  0
 36 61  1  0
 36 62  1  0
M  CHG  1   5   1
M  END
>  <DOCK_score>  (1) 
-49.94128

>  <SMILES>  (1) 
CC1=CC[N@H+](C(Cc2ccc(O)cc2C(=O)Nc2nc3cnccc3[nH]2)c2ccc(C)cc2)C1

$$$$
