Cc1ccc2c(c1)C[C@@H](NC(NC1CCC(=O)NC1)=[NH+]C1COc3ccccc3C1)CO2
     RDKit          3D

 63 67  0  0  1  0  0  0  0  0999 V2000
  129.7642  130.1114  152.1654 C   0  0  0  0  0  0  0  0  0  0  0  0
  130.2031  130.4295  153.5715 C   0  0  0  0  0  0  0  0  0  0  0  0
  131.2391  129.7192  154.1499 C   0  0  0  0  0  0  0  0  0  0  0  0
  131.6380  130.0091  155.4386 C   0  0  0  0  0  0  0  0  0  0  0  0
  131.0085  131.0223  156.1553 C   0  0  0  0  0  0  0  0  0  0  0  0
  129.9706  131.7295  155.5747 C   0  0  0  0  0  0  0  0  0  0  0  0
  129.5712  131.4306  154.2826 C   0  0  0  0  0  0  0  0  0  0  0  0
  129.2530  132.8258  156.3205 C   0  0  0  0  0  0  0  0  0  0  0  0
  130.1032  133.2829  157.5085 C   0  0  1  0  0  0  0  0  0  0  0  0
  130.9672  133.8418  157.1486 H   0  0  0  0  0  0  0  0  0  0  0  0
  129.3000  134.1301  158.3936 N   0  0  0  0  0  0  0  0  0  0  0  0
  129.8592  134.6588  159.5329 C   0  0  0  0  0  0  0  0  0  0  0  0
  129.0742  134.9014  160.6351 N   0  0  0  0  0  0  0  0  0  0  0  0
  127.6418  134.5966  160.5957 C   0  0  1  0  0  0  0  0  0  0  0  0
  127.4071  133.1632  161.0872 C   0  0  0  0  0  0  0  0  0  0  0  0
  125.9344  132.8102  160.8643 C   0  0  0  0  0  0  0  0  0  0  0  0
  125.0594  133.9068  161.4003 C   0  0  0  0  0  0  0  0  0  0  0  0
  123.8895  133.6599  161.6035 O   0  0  0  0  0  0  0  0  0  0  0  0
  125.5001  135.1372  161.6654 N   0  0  0  0  0  0  0  0  0  0  0  0
  126.8871  135.5588  161.5139 C   0  0  0  0  0  0  0  0  0  0  0  0
  131.1337  134.9300  159.5679 N   0  0  0  0  0  0  0  0  0  0  0  0
  131.5982  135.1829  158.7548 H   0  0  0  0  0  0  0  0  0  0  0  0
  131.8643  134.8530  160.8353 C   0  0  1  0  0  0  0  0  0  0  0  0
  133.3320  134.4975  160.5653 C   0  0  0  0  0  0  0  0  0  0  0  0
  133.9926  134.3283  161.8203 O   0  0  0  0  0  0  0  0  0  0  0  0
  133.8303  135.2968  162.7589 C   0  0  0  0  0  0  0  0  0  0  0  0
  134.7253  135.3467  163.8232 C   0  0  0  0  0  0  0  0  0  0  0  0
  134.5908  136.3131  164.7987 C   0  0  0  0  0  0  0  0  0  0  0  0
  133.5639  137.2359  164.7197 C   0  0  0  0  0  0  0  0  0  0  0  0
  132.6749  137.1904  163.6639 C   0  0  0  0  0  0  0  0  0  0  0  0
  132.8056  136.2234  162.6810 C   0  0  0  0  0  0  0  0  0  0  0  0
  131.8197  136.2110  161.5401 C   0  0  0  0  0  0  0  0  0  0  0  0
  130.5739  132.0380  158.2714 C   0  0  0  0  0  0  0  0  0  0  0  0
  131.4369  131.2860  157.4170 O   0  0  0  0  0  0  0  0  0  0  0  0
  128.9850  129.3498  152.1915 H   0  0  0  0  0  0  0  0  0  0  0  0
  129.3749  131.0135  151.6934 H   0  0  0  0  0  0  0  0  0  0  0  0
  130.6154  129.7408  151.5941 H   0  0  0  0  0  0  0  0  0  0  0  0
  131.7327  128.9351  153.5950 H   0  0  0  0  0  0  0  0  0  0  0  0
  132.4440  129.4505  155.8910 H   0  0  0  0  0  0  0  0  0  0  0  0
  128.7615  131.9831  153.8290 H   0  0  0  0  0  0  0  0  0  0  0  0
  129.0827  133.6687  155.6508 H   0  0  0  0  0  0  0  0  0  0  0  0
  128.2957  132.4514  156.6831 H   0  0  0  0  0  0  0  0  0  0  0  0
  128.3736  134.3179  158.1759 H   0  0  0  0  0  0  0  0  0  0  0  0
  129.4688  135.2744  161.4389 H   0  0  0  0  0  0  0  0  0  0  0  0
  127.2743  134.6978  159.5745 H   0  0  0  0  0  0  0  0  0  0  0  0
  128.0385  132.4746  160.5257 H   0  0  0  0  0  0  0  0  0  0  0  0
  127.6439  133.0959  162.1490 H   0  0  0  0  0  0  0  0  0  0  0  0
  125.7489  132.6880  159.7971 H   0  0  0  0  0  0  0  0  0  0  0  0
  125.7030  131.8788  161.3809 H   0  0  0  0  0  0  0  0  0  0  0  0
  124.8574  135.7926  161.9786 H   0  0  0  0  0  0  0  0  0  0  0  0
  127.3676  135.5748  162.4922 H   0  0  0  0  0  0  0  0  0  0  0  0
  126.9143  136.5609  161.0861 H   0  0  0  0  0  0  0  0  0  0  0  0
  131.4137  134.0929  161.4736 H   0  0  0  0  0  0  0  0  0  0  0  0
  133.3863  133.5709  159.9939 H   0  0  0  0  0  0  0  0  0  0  0  0
  133.8076  135.3026  160.0051 H   0  0  0  0  0  0  0  0  0  0  0  0
  135.5274  134.6263  163.8862 H   0  0  0  0  0  0  0  0  0  0  0  0
  135.2874  136.3490  165.6233 H   0  0  0  0  0  0  0  0  0  0  0  0
  133.4575  137.9922  165.4833 H   0  0  0  0  0  0  0  0  0  0  0  0
  131.8734  137.9120  163.6047 H   0  0  0  0  0  0  0  0  0  0  0  0
  132.0777  136.9968  160.8300 H   0  0  0  0  0  0  0  0  0  0  0  0
  130.8155  136.3868  161.9257 H   0  0  0  0  0  0  0  0  0  0  0  0
  131.1163  132.3397  159.1674 H   0  0  0  0  0  0  0  0  0  0  0  0
  129.7128  131.4307  158.5499 H   0  0  0  0  0  0  0  0  0  0  0  0
  1  2  1  0
  1 35  1  0
  1 36  1  0
  1 37  1  0
  2  7  2  0
  2  3  1  0
  3  4  2  0
  3 38  1  0
  4  5  1  0
  4 39  1  0
  5 34  1  0
  5  6  2  0
  6  7  1  0
  6  8  1  0
  7 40  1  0
  8  9  1  0
  8 41  1  0
  8 42  1  0
  9 10  1  6
  9 11  1  0
  9 33  1  0
 11 43  1  0
 12 11  1  0
 12 13  1  0
 12 21  2  0
 13 14  1  0
 13 44  1  0
 14 20  1  0
 14 15  1  0
 14 45  1  6
 15 16  1  0
 15 46  1  0
 15 47  1  0
 16 17  1  0
 16 48  1  0
 16 49  1  0
 17 18  2  0
 17 19  1  0
 19 20  1  0
 19 50  1  0
 20 51  1  0
 20 52  1  0
 21 22  1  0
 21 23  1  0
 23 32  1  0
 23 24  1  0
 23 53  1  1
 24 25  1  0
 24 54  1  0
 24 55  1  0
 25 26  1  0
 26 31  2  0
 26 27  1  0
 27 28  2  0
 27 56  1  0
 28 29  1  0
 28 57  1  0
 29 30  2  0
 29 58  1  0
 30 31  1  0
 30 59  1  0
 31 32  1  0
 32 60  1  0
 32 61  1  0
 33 34  1  0
 33 62  1  0
 33 63  1  0
M  CHG  1  21   1
M  END
>  <DOCK_score>  (1) 
-50.302986

>  <SMILES>  (1) 
Cc1ccc2c(c1)C[C@@H](NC(NC1CCC(=O)NC1)=[NH+]C1COc3ccccc3C1)CO2

$$$$
