CC(c1ccccc1)[C@H](Nc1[nH]cc(-c2cccnc2)[nH+]1)c1ccccc1
     RDKit          3D

 50 53  0  0  1  0  0  0  0  0999 V2000
  130.1155  138.6208  159.9745 C   0  0  0  0  0  0  0  0  0  0  0  0
  130.8921  137.8857  161.0690 C   0  0  2  0  0  0  0  0  0  0  0  0
  132.3685  138.1229  160.8829 C   0  0  0  0  0  0  0  0  0  0  0  0
  133.2787  137.1632  161.2844 C   0  0  0  0  0  0  0  0  0  0  0  0
  134.6329  137.3784  161.1086 C   0  0  0  0  0  0  0  0  0  0  0  0
  135.0771  138.5556  160.5361 C   0  0  0  0  0  0  0  0  0  0  0  0
  134.1671  139.5176  160.1394 C   0  0  0  0  0  0  0  0  0  0  0  0
  132.8130  139.3025  160.3154 C   0  0  0  0  0  0  0  0  0  0  0  0
  130.6013  136.3861  160.9810 C   0  0  2  0  0  0  0  0  0  0  0  0
  131.1546  135.8625  161.7607 H   0  0  0  0  0  0  0  0  0  0  0  0
  131.0147  135.8847  159.6681 N   0  0  0  0  0  0  0  0  0  0  0  0
  130.8488  134.5466  159.3546 C   0  0  0  0  0  0  0  0  0  0  0  0
  130.3223  133.5989  160.1774 N   0  0  0  0  0  0  0  0  0  0  0  0
  129.9985  133.7384  161.0811 H   0  0  0  0  0  0  0  0  0  0  0  0
  130.3313  132.4091  159.4910 C   0  0  0  0  0  0  0  0  0  0  0  0
  130.8705  132.6617  158.2727 C   0  0  0  0  0  0  0  0  0  0  0  0
  131.0861  131.6700  157.1908 C   0  0  0  0  0  0  0  0  0  0  0  0
  131.0377  132.0604  155.8493 C   0  0  0  0  0  0  0  0  0  0  0  0
  131.2513  131.0982  154.8775 C   0  0  0  0  0  0  0  0  0  0  0  0
  131.4921  129.7912  155.2610 C   0  0  0  0  0  0  0  0  0  0  0  0
  131.5265  129.4516  156.5350 N   0  0  0  0  0  0  0  0  0  0  0  0
  131.3345  130.3331  157.4950 C   0  0  0  0  0  0  0  0  0  0  0  0
  131.1781  133.9820  158.2185 N   0  0  0  0  0  0  0  0  0  0  0  0
  131.5785  134.4356  157.4602 H   0  0  0  0  0  0  0  0  0  0  0  0
  129.1247  136.1491  161.1672 C   0  0  0  0  0  0  0  0  0  0  0  0
  128.6136  135.9336  162.4334 C   0  0  0  0  0  0  0  0  0  0  0  0
  127.2586  135.7200  162.6045 C   0  0  0  0  0  0  0  0  0  0  0  0
  126.4160  135.7139  161.5087 C   0  0  0  0  0  0  0  0  0  0  0  0
  126.9279  135.9243  160.2420 C   0  0  0  0  0  0  0  0  0  0  0  0
  128.2823  136.1416  160.0712 C   0  0  0  0  0  0  0  0  0  0  0  0
  130.3226  139.6891  160.0372 H   0  0  0  0  0  0  0  0  0  0  0  0
  130.4231  138.2477  158.9978 H   0  0  0  0  0  0  0  0  0  0  0  0
  129.0475  138.4492  160.1092 H   0  0  0  0  0  0  0  0  0  0  0  0
  130.5845  138.2588  162.0457 H   0  0  0  0  0  0  0  0  0  0  0  0
  132.9318  136.2431  161.7313 H   0  0  0  0  0  0  0  0  0  0  0  0
  135.3438  136.6266  161.4180 H   0  0  0  0  0  0  0  0  0  0  0  0
  136.1350  138.7236  160.3984 H   0  0  0  0  0  0  0  0  0  0  0  0
  134.5141  140.4373  159.6919 H   0  0  0  0  0  0  0  0  0  0  0  0
  132.1020  140.0539  160.0051 H   0  0  0  0  0  0  0  0  0  0  0  0
  131.4047  136.4903  159.0184 H   0  0  0  0  0  0  0  0  0  0  0  0
  129.9801  131.4543  159.8537 H   0  0  0  0  0  0  0  0  0  0  0  0
  130.8426  133.0874  155.5783 H   0  0  0  0  0  0  0  0  0  0  0  0
  131.2260  131.3643  153.8313 H   0  0  0  0  0  0  0  0  0  0  0  0
  131.6549  129.0370  154.5052 H   0  0  0  0  0  0  0  0  0  0  0  0
  131.3702  130.0168  158.5270 H   0  0  0  0  0  0  0  0  0  0  0  0
  129.2725  135.9350  163.2891 H   0  0  0  0  0  0  0  0  0  0  0  0
  126.8588  135.5553  163.5943 H   0  0  0  0  0  0  0  0  0  0  0  0
  125.3577  135.5444  161.6423 H   0  0  0  0  0  0  0  0  0  0  0  0
  126.2696  135.9191  159.3858 H   0  0  0  0  0  0  0  0  0  0  0  0
  128.6822  136.3060  159.0816 H   0  0  0  0  0  0  0  0  0  0  0  0
  1  2  1  0
  1 31  1  0
  1 32  1  0
  1 33  1  0
  2  3  1  0
  2  9  1  0
  2 34  1  1
  3  8  1  0
  3  4  2  0
  4  5  1  0
  4 35  1  0
  5  6  2  0
  5 36  1  0
  6  7  1  0
  6 37  1  0
  7  8  2  0
  7 38  1  0
  8 39  1  0
  9 10  1  1
  9 11  1  0
  9 25  1  0
 11 40  1  0
 12 11  1  0
 12 23  2  0
 12 13  1  0
 13 14  1  0
 13 15  1  0
 15 16  2  0
 15 41  1  0
 16 17  1  0
 16 23  1  0
 17 22  1  0
 17 18  2  0
 18 19  1  0
 18 42  1  0
 19 20  2  0
 19 43  1  0
 20 21  1  0
 20 44  1  0
 21 22  2  0
 22 45  1  0
 23 24  1  0
 25 30  1  0
 25 26  2  0
 26 27  1  0
 26 46  1  0
 27 28  2  0
 27 47  1  0
 28 29  1  0
 28 48  1  0
 29 30  2  0
 29 49  1  0
 30 50  1  0
M  CHG  1  23   1
M  END
>  <DOCK_score>  (1) 
-56.875401

>  <SMILES>  (1) 
CC(c1ccccc1)[C@H](Nc1[nH]cc(-c2cccnc2)[nH+]1)c1ccccc1

$$$$
