CC(C)(C)Cn1cc(NC(=O)c2n[nH]cc2C2CC[NH+](CC(=O)c3cc4ccccc4[nH]3)CC2)cn1
     RDKit          3D

 70 74  0  0  1  0  0  0  0  0999 V2000
  129.0176  140.4960  165.6017 C   0  0  0  0  0  0  0  0  0  0  0  0
  127.5473  140.9135  165.5311 C   0  0  0  0  0  0  0  0  0  0  0  0
  127.3560  142.2349  166.2782 C   0  0  0  0  0  0  0  0  0  0  0  0
  126.6786  139.8321  166.1767 C   0  0  0  0  0  0  0  0  0  0  0  0
  127.1373  141.0910  164.0678 C   0  0  0  0  0  0  0  0  0  0  0  0
  127.3205  139.8257  163.3523 N   0  0  0  0  0  0  0  0  0  0  0  0
  126.3908  138.8460  163.2101 C   0  0  0  0  0  0  0  0  0  0  0  0
  126.9568  137.8461  162.4868 C   0  0  0  0  0  0  0  0  0  0  0  0
  126.3366  136.6391  162.1142 N   0  0  0  0  0  0  0  0  0  0  0  0
  127.0166  135.7271  161.3915 C   0  0  0  0  0  0  0  0  0  0  0  0
  128.1659  135.9471  161.0614 O   0  0  0  0  0  0  0  0  0  0  0  0
  126.3656  134.4603  161.0005 C   0  0  0  0  0  0  0  0  0  0  0  0
  125.1314  134.0931  161.2822 N   0  0  0  0  0  0  0  0  0  0  0  0
  124.8945  132.9298  160.7911 N   0  0  0  0  0  0  0  0  0  0  0  0
  124.0534  132.4537  160.8732 H   0  0  0  0  0  0  0  0  0  0  0  0
  125.9830  132.4677  160.1392 C   0  0  0  0  0  0  0  0  0  0  0  0
  126.9463  133.4126  160.2473 C   0  0  0  0  0  0  0  0  0  0  0  0
  128.3433  133.3594  159.6846 C   0  0  2  0  0  0  0  0  0  0  0  0
  128.3495  133.9511  158.2722 C   0  0  0  0  0  0  0  0  0  0  0  0
  129.7529  133.8198  157.6763 C   0  0  0  0  0  0  0  0  0  0  0  0
  130.1350  132.4037  157.6186 N   0  0  1  0  0  0  0  0  0  0  0  0
  129.4494  131.8940  157.0818 H   0  0  0  0  0  0  0  0  0  0  0  0
  131.4499  132.2788  156.9756 C   0  0  0  0  0  0  0  0  0  0  0  0
  131.6313  130.8699  156.4725 C   0  0  0  0  0  0  0  0  0  0  0  0
  132.1289  130.0280  157.1916 O   0  0  0  0  0  0  0  0  0  0  0  0
  131.2080  130.5171  155.1190 C   0  0  0  0  0  0  0  0  0  0  0  0
  130.6334  131.3683  154.2224 C   0  0  0  0  0  0  0  0  0  0  0  0
  130.3797  130.6384  153.0381 C   0  0  0  0  0  0  0  0  0  0  0  0
  129.8168  130.9792  151.8003 C   0  0  0  0  0  0  0  0  0  0  0  0
  129.6960  130.0320  150.8262 C   0  0  0  0  0  0  0  0  0  0  0  0
  130.1262  128.7293  151.0482 C   0  0  0  0  0  0  0  0  0  0  0  0
  130.6828  128.3697  152.2548 C   0  0  0  0  0  0  0  0  0  0  0  0
  130.8172  129.3181  153.2654 C   0  0  0  0  0  0  0  0  0  0  0  0
  131.3203  129.2644  154.5435 N   0  0  0  0  0  0  0  0  0  0  0  0
  131.6928  128.4774  154.9713 H   0  0  0  0  0  0  0  0  0  0  0  0
  130.2015  131.8501  158.9764 C   0  0  0  0  0  0  0  0  0  0  0  0
  128.8150  131.9039  159.6216 C   0  0  0  0  0  0  0  0  0  0  0  0
  128.2677  138.2327  162.1718 C   0  0  0  0  0  0  0  0  0  0  0  0
  128.4838  139.4147  162.6892 N   0  0  0  0  0  0  0  0  0  0  0  0
  129.6365  141.2663  165.1417 H   0  0  0  0  0  0  0  0  0  0  0  0
  129.3098  140.3695  166.6442 H   0  0  0  0  0  0  0  0  0  0  0  0
  129.1539  139.5546  165.0693 H   0  0  0  0  0  0  0  0  0  0  0  0
  126.3086  142.5323  166.2280 H   0  0  0  0  0  0  0  0  0  0  0  0
  127.6482  142.1084  167.3207 H   0  0  0  0  0  0  0  0  0  0  0  0
  127.9750  143.0052  165.8183 H   0  0  0  0  0  0  0  0  0  0  0  0
  126.8149  138.8907  165.6443 H   0  0  0  0  0  0  0  0  0  0  0  0
  126.9708  139.7057  167.2192 H   0  0  0  0  0  0  0  0  0  0  0  0
  125.6311  140.1295  166.1264 H   0  0  0  0  0  0  0  0  0  0  0  0
  127.7561  141.8614  163.6079 H   0  0  0  0  0  0  0  0  0  0  0  0
  126.0898  141.3884  164.0175 H   0  0  0  0  0  0  0  0  0  0  0  0
  125.3849  138.8586  163.6031 H   0  0  0  0  0  0  0  0  0  0  0  0
  125.4196  136.4636  162.3774 H   0  0  0  0  0  0  0  0  0  0  0  0
  126.0690  131.5207  159.6270 H   0  0  0  0  0  0  0  0  0  0  0  0
  129.0154  133.9330  160.3230 H   0  0  0  0  0  0  0  0  0  0  0  0
  127.6381  133.4104  157.6480 H   0  0  0  0  0  0  0  0  0  0  0  0
  128.0688  135.0034  158.3171 H   0  0  0  0  0  0  0  0  0  0  0  0
  130.4630  134.3622  158.3004 H   0  0  0  0  0  0  0  0  0  0  0  0
  129.7600  134.2389  156.6701 H   0  0  0  0  0  0  0  0  0  0  0  0
  131.5127  132.9742  156.1388 H   0  0  0  0  0  0  0  0  0  0  0  0
  132.2316  132.5095  157.6994 H   0  0  0  0  0  0  0  0  0  0  0  0
  130.4136  132.4130  154.3864 H   0  0  0  0  0  0  0  0  0  0  0  0
  129.4798  131.9890  151.6183 H   0  0  0  0  0  0  0  0  0  0  0  0
  129.2622  130.2969  149.8732 H   0  0  0  0  0  0  0  0  0  0  0  0
  130.0231  127.9917  150.2660 H   0  0  0  0  0  0  0  0  0  0  0  0
  131.0139  127.3547  152.4174 H   0  0  0  0  0  0  0  0  0  0  0  0
  130.9021  132.4345  159.5728 H   0  0  0  0  0  0  0  0  0  0  0  0
  130.5403  130.8152  158.9301 H   0  0  0  0  0  0  0  0  0  0  0  0
  128.8667  131.4939  160.6303 H   0  0  0  0  0  0  0  0  0  0  0  0
  128.1130  131.3193  159.0267 H   0  0  0  0  0  0  0  0  0  0  0  0
  128.9778  137.6532  161.6003 H   0  0  0  0  0  0  0  0  0  0  0  0
  1  2  1  0
  1 40  1  0
  1 41  1  0
  1 42  1  0
  2  3  1  0
  2  4  1  0
  2  5  1  0
  3 43  1  0
  3 44  1  0
  3 45  1  0
  4 46  1  0
  4 47  1  0
  4 48  1  0
  5  6  1  0
  5 49  1  0
  5 50  1  0
  6 39  1  0
  6  7  1  0
  7  8  2  0
  7 51  1  0
  8  9  1  0
  8 38  1  0
  9 10  1  0
  9 52  1  0
 10 11  2  0
 10 12  1  0
 12 17  1  0
 12 13  2  0
 13 14  1  0
 14 15  1  0
 14 16  1  0
 16 17  2  0
 16 53  1  0
 17 18  1  0
 18 37  1  0
 18 19  1  0
 18 54  1  1
 19 20  1  0
 19 55  1  0
 19 56  1  0
 20 21  1  0
 20 57  1  0
 20 58  1  0
 21 22  1  6
 21 23  1  0
 21 36  1  0
 23 24  1  0
 23 59  1  0
 23 60  1  0
 24 25  2  0
 24 26  1  0
 26 34  1  0
 26 27  2  0
 27 28  1  0
 27 61  1  0
 28 33  2  0
 28 29  1  0
 29 30  2  0
 29 62  1  0
 30 31  1  0
 30 63  1  0
 31 32  2  0
 31 64  1  0
 32 33  1  0
 32 65  1  0
 33 34  1  0
 34 35  1  0
 36 37  1  0
 36 66  1  0
 36 67  1  0
 37 68  1  0
 37 69  1  0
 38 39  2  0
 38 70  1  0
M  CHG  1  21   1
M  END
>  <DOCK_score>  (1) 
-49.00985

>  <SMILES>  (1) 
CC(C)(C)Cn1cc(NC(=O)c2n[nH]cc2C2CC[NH+](CC(=O)c3cc4ccccc4[nH]3)CC2)cn1

$$$$
