C[C@](CNc1c[nH]c2ccccc12)([NH2+]Cc1cccc2c1NC(=O)CO2)c1ccccc1
     RDKit          3D

 59 63  0  0  1  0  0  0  0  0999 V2000
  128.9698  136.9415  159.1444 C   0  0  0  0  0  0  0  0  0  0  0  0
  129.4825  135.7251  159.9177 C   0  0  2  0  0  0  0  0  0  0  0  0
  130.4689  136.1833  160.9937 C   0  0  0  0  0  0  0  0  0  0  0  0
  131.5972  136.8707  160.3610 N   0  0  0  0  0  0  0  0  0  0  0  0
  132.6407  137.3859  161.1524 C   0  0  0  0  0  0  0  0  0  0  0  0
  132.7385  137.3164  162.4929 C   0  0  0  0  0  0  0  0  0  0  0  0
  133.8979  137.9314  162.9071 N   0  0  0  0  0  0  0  0  0  0  0  0
  134.1889  138.0094  163.8290 H   0  0  0  0  0  0  0  0  0  0  0  0
  134.5831  138.4190  161.8171 C   0  0  0  0  0  0  0  0  0  0  0  0
  135.7832  139.1086  161.6728 C   0  0  0  0  0  0  0  0  0  0  0  0
  136.2178  139.4698  160.4167 C   0  0  0  0  0  0  0  0  0  0  0  0
  135.4698  139.1534  159.2905 C   0  0  0  0  0  0  0  0  0  0  0  0
  134.2889  138.4770  159.4093 C   0  0  0  0  0  0  0  0  0  0  0  0
  133.8323  138.0953  160.6724 C   0  0  0  0  0  0  0  0  0  0  0  0
  130.1592  134.8064  158.9924 N   0  0  0  0  0  0  0  0  0  0  0  0
  130.7682  134.1929  159.5129 H   0  0  0  0  0  0  0  0  0  0  0  0
  130.7036  135.3373  158.3293 H   0  0  0  0  0  0  0  0  0  0  0  0
  129.1567  134.0076  158.2749 C   0  0  0  0  0  0  0  0  0  0  0  0
  129.8509  133.0651  157.3256 C   0  0  0  0  0  0  0  0  0  0  0  0
  130.1183  133.4606  156.0273 C   0  0  0  0  0  0  0  0  0  0  0  0
  130.7586  132.5995  155.1560 C   0  0  0  0  0  0  0  0  0  0  0  0
  131.1278  131.3330  155.5730 C   0  0  0  0  0  0  0  0  0  0  0  0
  130.8594  130.9285  156.8685 C   0  0  0  0  0  0  0  0  0  0  0  0
  130.2177  131.7988  157.7489 C   0  0  0  0  0  0  0  0  0  0  0  0
  129.9512  131.3757  159.0588 N   0  0  0  0  0  0  0  0  0  0  0  0
  130.5849  130.2819  159.5350 C   0  0  0  0  0  0  0  0  0  0  0  0
  130.3466  129.8793  160.6542 O   0  0  0  0  0  0  0  0  0  0  0  0
  131.5891  129.5634  158.6703 C   0  0  0  0  0  0  0  0  0  0  0  0
  131.2157  129.6876  157.2956 O   0  0  0  0  0  0  0  0  0  0  0  0
  128.3219  135.0177  160.5685 C   0  0  0  0  0  0  0  0  0  0  0  0
  127.0380  135.5042  160.4081 C   0  0  0  0  0  0  0  0  0  0  0  0
  125.9728  134.8526  161.0012 C   0  0  0  0  0  0  0  0  0  0  0  0
  126.1927  133.7205  161.7632 C   0  0  0  0  0  0  0  0  0  0  0  0
  127.4773  133.2370  161.9280 C   0  0  0  0  0  0  0  0  0  0  0  0
  128.5418  133.8857  161.3307 C   0  0  0  0  0  0  0  0  0  0  0  0
  128.2672  136.6151  158.3778 H   0  0  0  0  0  0  0  0  0  0  0  0
  128.4677  137.6232  159.8309 H   0  0  0  0  0  0  0  0  0  0  0  0
  129.8093  137.4532  158.6737 H   0  0  0  0  0  0  0  0  0  0  0  0
  129.9668  136.8651  161.6802 H   0  0  0  0  0  0  0  0  0  0  0  0
  130.8342  135.3166  161.5447 H   0  0  0  0  0  0  0  0  0  0  0  0
  131.6253  136.9709  159.3965 H   0  0  0  0  0  0  0  0  0  0  0  0
  132.0159  136.8490  163.1454 H   0  0  0  0  0  0  0  0  0  0  0  0
  136.3717  139.3600  162.5427 H   0  0  0  0  0  0  0  0  0  0  0  0
  137.1495  140.0050  160.3068 H   0  0  0  0  0  0  0  0  0  0  0  0
  135.8244  139.4445  158.3128 H   0  0  0  0  0  0  0  0  0  0  0  0
  133.7122  138.2346  158.5289 H   0  0  0  0  0  0  0  0  0  0  0  0
  128.5687  133.4338  158.9913 H   0  0  0  0  0  0  0  0  0  0  0  0
  128.4987  134.6702  157.7127 H   0  0  0  0  0  0  0  0  0  0  0  0
  129.8293  134.4466  155.6946 H   0  0  0  0  0  0  0  0  0  0  0  0
  130.9678  132.9150  154.1445 H   0  0  0  0  0  0  0  0  0  0  0  0
  131.6249  130.6615  154.8886 H   0  0  0  0  0  0  0  0  0  0  0  0
  129.3215  131.8610  159.6145 H   0  0  0  0  0  0  0  0  0  0  0  0
  132.5758  130.0021  158.8193 H   0  0  0  0  0  0  0  0  0  0  0  0
  131.6161  128.5090  158.9451 H   0  0  0  0  0  0  0  0  0  0  0  0
  126.8666  136.3914  159.8164 H   0  0  0  0  0  0  0  0  0  0  0  0
  124.9693  135.2307  160.8726 H   0  0  0  0  0  0  0  0  0  0  0  0
  125.3610  133.2140  162.2301 H   0  0  0  0  0  0  0  0  0  0  0  0
  127.6491  132.3527  162.5236 H   0  0  0  0  0  0  0  0  0  0  0  0
  129.5454  133.5080  161.4596 H   0  0  0  0  0  0  0  0  0  0  0  0
  1 36  1  0
  1 37  1  0
  1 38  1  0
  2  1  1  6
  2  3  1  0
  2 15  1  0
  2 30  1  0
  3  4  1  0
  3 39  1  0
  3 40  1  0
  4  5  1  0
  4 41  1  0
  5 14  1  0
  5  6  2  0
  6  7  1  0
  6 42  1  0
  7  8  1  0
  7  9  1  0
  9 14  2  0
  9 10  1  0
 10 11  2  0
 10 43  1  0
 11 12  1  0
 11 44  1  0
 12 13  2  0
 12 45  1  0
 13 14  1  0
 13 46  1  0
 15 16  1  0
 15 17  1  0
 15 18  1  0
 18 19  1  0
 18 47  1  0
 18 48  1  0
 19 24  1  0
 19 20  2  0
 20 21  1  0
 20 49  1  0
 21 22  2  0
 21 50  1  0
 22 23  1  0
 22 51  1  0
 23 29  1  0
 23 24  2  0
 24 25  1  0
 25 26  1  0
 25 52  1  0
 26 27  2  0
 26 28  1  0
 28 29  1  0
 28 53  1  0
 28 54  1  0
 30 35  1  0
 30 31  2  0
 31 32  1  0
 31 55  1  0
 32 33  2  0
 32 56  1  0
 33 34  1  0
 33 57  1  0
 34 35  2  0
 34 58  1  0
 35 59  1  0
M  CHG  1  15   1
M  END
>  <DOCK_score>  (1) 
-60.148335

>  <SMILES>  (1) 
C[C@](CNc1c[nH]c2ccccc12)([NH2+]Cc1cccc2c1NC(=O)CO2)c1ccccc1

$$$$
