CCNc1cccc(Nc2[nH]cc(-c3ccc(CC)cc3)[nH+]2)c1
     RDKit          3D

 46 48  0  0  1  0  0  0  0  0999 V2000
  126.2997  132.9729  160.5607 C   0  0  0  0  0  0  0  0  0  0  0  0
  125.4939  134.1295  159.9659 C   0  0  0  0  0  0  0  0  0  0  0  0
  125.8344  135.3717  160.6640 N   0  0  0  0  0  0  0  0  0  0  0  0
  127.1508  135.8385  160.6566 C   0  0  0  0  0  0  0  0  0  0  0  0
  127.5708  136.7507  161.6176 C   0  0  0  0  0  0  0  0  0  0  0  0
  128.8725  137.2133  161.6106 C   0  0  0  0  0  0  0  0  0  0  0  0
  129.7608  136.7718  160.6488 C   0  0  0  0  0  0  0  0  0  0  0  0
  129.3471  135.8603  159.6850 C   0  0  0  0  0  0  0  0  0  0  0  0
  130.2462  135.4149  158.7119 N   0  0  0  0  0  0  0  0  0  0  0  0
  130.1113  134.1455  158.1734 C   0  0  0  0  0  0  0  0  0  0  0  0
  129.6020  133.0605  158.8186 N   0  0  0  0  0  0  0  0  0  0  0  0
  129.2712  133.0371  159.7301 H   0  0  0  0  0  0  0  0  0  0  0  0
  129.6431  132.0052  157.9409 C   0  0  0  0  0  0  0  0  0  0  0  0
  130.1758  132.4749  156.7853 C   0  0  0  0  0  0  0  0  0  0  0  0
  130.4137  131.6880  155.5506 C   0  0  0  0  0  0  0  0  0  0  0  0
  129.7929  132.0537  154.3575 C   0  0  0  0  0  0  0  0  0  0  0  0
  130.0182  131.3181  153.2117 C   0  0  0  0  0  0  0  0  0  0  0  0
  130.8587  130.2194  153.2462 C   0  0  0  0  0  0  0  0  0  0  0  0
  131.1003  129.4198  151.9918 C   0  0  0  0  0  0  0  0  0  0  0  0
  130.0564  128.3063  151.8878 C   0  0  0  0  0  0  0  0  0  0  0  0
  131.4732  129.8490  154.4285 C   0  0  0  0  0  0  0  0  0  0  0  0
  131.2593  130.5804  155.5791 C   0  0  0  0  0  0  0  0  0  0  0  0
  130.4579  133.7900  156.9604 N   0  0  0  0  0  0  0  0  0  0  0  0
  130.8513  134.3744  156.2937 H   0  0  0  0  0  0  0  0  0  0  0  0
  128.0388  135.3971  159.6862 C   0  0  0  0  0  0  0  0  0  0  0  0
  127.3647  133.1747  160.4449 H   0  0  0  0  0  0  0  0  0  0  0  0
  126.0621  132.8713  161.6196 H   0  0  0  0  0  0  0  0  0  0  0  0
  126.0464  132.0487  160.0412 H   0  0  0  0  0  0  0  0  0  0  0  0
  124.4291  133.9278  160.0816 H   0  0  0  0  0  0  0  0  0  0  0  0
  125.7315  134.2311  158.9069 H   0  0  0  0  0  0  0  0  0  0  0  0
  125.1456  135.8699  161.1313 H   0  0  0  0  0  0  0  0  0  0  0  0
  126.8788  137.0984  162.3703 H   0  0  0  0  0  0  0  0  0  0  0  0
  129.1964  137.9221  162.3585 H   0  0  0  0  0  0  0  0  0  0  0  0
  130.7776  137.1358  160.6460 H   0  0  0  0  0  0  0  0  0  0  0  0
  130.9644  135.9945  158.4135 H   0  0  0  0  0  0  0  0  0  0  0  0
  129.3140  130.9949  158.1337 H   0  0  0  0  0  0  0  0  0  0  0  0
  129.1365  132.9108  154.3297 H   0  0  0  0  0  0  0  0  0  0  0  0
  129.5380  131.6007  152.2866 H   0  0  0  0  0  0  0  0  0  0  0  0
  132.0975  128.9814  152.0269 H   0  0  0  0  0  0  0  0  0  0  0  0
  131.0215  130.0741  151.1230 H   0  0  0  0  0  0  0  0  0  0  0  0
  130.2312  127.7281  150.9805 H   0  0  0  0  0  0  0  0  0  0  0  0
  130.1352  127.6526  152.7563 H   0  0  0  0  0  0  0  0  0  0  0  0
  129.0592  128.7450  151.8525 H   0  0  0  0  0  0  0  0  0  0  0  0
  132.1246  128.9880  154.4503 H   0  0  0  0  0  0  0  0  0  0  0  0
  131.7431  130.2927  156.5007 H   0  0  0  0  0  0  0  0  0  0  0  0
  127.7137  134.6917  158.9357 H   0  0  0  0  0  0  0  0  0  0  0  0
  1  2  1  0
  1 26  1  0
  1 27  1  0
  1 28  1  0
  2  3  1  0
  2 29  1  0
  2 30  1  0
  3  4  1  0
  3 31  1  0
  4 25  2  0
  4  5  1  0
  5  6  2  0
  5 32  1  0
  6  7  1  0
  6 33  1  0
  7  8  2  0
  7 34  1  0
  8  9  1  0
  8 25  1  0
  9 35  1  0
 10  9  1  0
 10 23  2  0
 10 11  1  0
 11 12  1  0
 11 13  1  0
 13 14  2  0
 13 36  1  0
 14 15  1  0
 14 23  1  0
 15 22  1  0
 15 16  2  0
 16 17  1  0
 16 37  1  0
 17 18  2  0
 17 38  1  0
 18 19  1  0
 18 21  1  0
 19 20  1  0
 19 39  1  0
 19 40  1  0
 20 41  1  0
 20 42  1  0
 20 43  1  0
 21 22  2  0
 21 44  1  0
 22 45  1  0
 23 24  1  0
 25 46  1  0
M  CHG  1  23   1
M  END
>  <DOCK_score>  (1) 
-55.609623

>  <SMILES>  (1) 
CCNc1cccc(Nc2[nH]cc(-c3ccc(CC)cc3)[nH+]2)c1

$$$$
