CCc1ccc(-c2cnc([C@H](Nc3[nH]cc(-c4ccc(CC)cc4)[nH+]3)C(F)(F)F)cn2)cc1
     RDKit          3D

 58 61  0  0  1  0  0  0  0  0999 V2000
  138.4127  136.8099  166.3433 C   0  0  0  0  0  0  0  0  0  0  0  0
  137.0501  136.9218  167.0300 C   0  0  0  0  0  0  0  0  0  0  0  0
  135.9571  136.7053  166.0154 C   0  0  0  0  0  0  0  0  0  0  0  0
  135.4766  135.4294  165.7818 C   0  0  0  0  0  0  0  0  0  0  0  0
  134.4760  135.2252  164.8535 C   0  0  0  0  0  0  0  0  0  0  0  0
  133.9492  136.3077  164.1513 C   0  0  0  0  0  0  0  0  0  0  0  0
  132.8736  136.0945  163.1523 C   0  0  0  0  0  0  0  0  0  0  0  0
  133.0755  136.4529  161.8194 C   0  0  0  0  0  0  0  0  0  0  0  0
  132.1171  136.2566  160.9336 N   0  0  0  0  0  0  0  0  0  0  0  0
  130.9636  135.7315  161.3103 C   0  0  0  0  0  0  0  0  0  0  0  0
  129.8701  135.5151  160.2962 C   0  0  2  0  0  0  0  0  0  0  0  0
  129.2647  134.6582  160.5919 H   0  0  0  0  0  0  0  0  0  0  0  0
  130.4660  135.2619  158.9820 N   0  0  0  0  0  0  0  0  0  0  0  0
  130.2137  134.0692  158.3258 C   0  0  0  0  0  0  0  0  0  0  0  0
  129.4376  133.0548  158.7955 N   0  0  0  0  0  0  0  0  0  0  0  0
  128.9656  133.0374  159.6427 H   0  0  0  0  0  0  0  0  0  0  0  0
  129.4456  132.0600  157.8481 C   0  0  0  0  0  0  0  0  0  0  0  0
  130.2257  132.4949  156.8276 C   0  0  0  0  0  0  0  0  0  0  0  0
  130.5267  131.7504  155.5805 C   0  0  0  0  0  0  0  0  0  0  0  0
  130.1730  132.2862  154.3434 C   0  0  0  0  0  0  0  0  0  0  0  0
  130.4560  131.5893  153.1863 C   0  0  0  0  0  0  0  0  0  0  0  0
  131.0895  130.3609  153.2529 C   0  0  0  0  0  0  0  0  0  0  0  0
  131.3959  129.6046  151.9860 C   0  0  0  0  0  0  0  0  0  0  0  0
  130.2147  128.6977  151.6350 C   0  0  0  0  0  0  0  0  0  0  0  0
  131.4376  129.8221  154.4780 C   0  0  0  0  0  0  0  0  0  0  0  0
  131.1647  130.5127  155.6413 C   0  0  0  0  0  0  0  0  0  0  0  0
  130.6870  133.7289  157.1519 N   0  0  0  0  0  0  0  0  0  0  0  0
  131.2720  134.2732  156.6019 H   0  0  0  0  0  0  0  0  0  0  0  0
  128.9873  136.7627  160.2241 C   0  0  0  0  0  0  0  0  0  0  0  0
  129.7643  137.8624  159.8445 F   0  0  0  0  0  0  0  0  0  0  0  0
  127.9721  136.5617  159.2827 F   0  0  0  0  0  0  0  0  0  0  0  0
  128.4183  137.0044  161.4791 F   0  0  0  0  0  0  0  0  0  0  0  0
  130.7591  135.3747  162.6318 C   0  0  0  0  0  0  0  0  0  0  0  0
  131.7139  135.5620  163.5243 N   0  0  0  0  0  0  0  0  0  0  0  0
  134.4406  137.5903  164.3870 C   0  0  0  0  0  0  0  0  0  0  0  0
  135.4375  137.7834  165.3218 C   0  0  0  0  0  0  0  0  0  0  0  0
  138.4885  137.5651  165.5610 H   0  0  0  0  0  0  0  0  0  0  0  0
  139.2034  136.9665  167.0771 H   0  0  0  0  0  0  0  0  0  0  0  0
  138.5172  135.8185  165.9026 H   0  0  0  0  0  0  0  0  0  0  0  0
  136.9456  137.9132  167.4708 H   0  0  0  0  0  0  0  0  0  0  0  0
  136.9745  136.1665  167.8124 H   0  0  0  0  0  0  0  0  0  0  0  0
  135.8857  134.5913  166.3264 H   0  0  0  0  0  0  0  0  0  0  0  0
  134.1017  134.2287  164.6718 H   0  0  0  0  0  0  0  0  0  0  0  0
  134.0160  136.8860  161.5119 H   0  0  0  0  0  0  0  0  0  0  0  0
  131.0372  135.9299  158.5717 H   0  0  0  0  0  0  0  0  0  0  0  0
  128.9293  131.1132  157.9050 H   0  0  0  0  0  0  0  0  0  0  0  0
  129.6783  133.2447  154.2903 H   0  0  0  0  0  0  0  0  0  0  0  0
  130.1821  132.0035  152.2271 H   0  0  0  0  0  0  0  0  0  0  0  0
  132.2893  128.9986  152.1315 H   0  0  0  0  0  0  0  0  0  0  0  0
  131.5647  130.3116  151.1728 H   0  0  0  0  0  0  0  0  0  0  0  0
  130.0455  127.9914  152.4478 H   0  0  0  0  0  0  0  0  0  0  0  0
  129.3210  129.3044  151.4892 H   0  0  0  0  0  0  0  0  0  0  0  0
  130.4363  128.1508  150.7186 H   0  0  0  0  0  0  0  0  0  0  0  0
  131.9276  128.8608  154.5241 H   0  0  0  0  0  0  0  0  0  0  0  0
  131.4411  130.0930  156.5972 H   0  0  0  0  0  0  0  0  0  0  0  0
  129.8166  134.9423  162.9335 H   0  0  0  0  0  0  0  0  0  0  0  0
  134.0394  138.4320  163.8422 H   0  0  0  0  0  0  0  0  0  0  0  0
  135.8163  138.7775  165.5082 H   0  0  0  0  0  0  0  0  0  0  0  0
  1  2  1  0
  1 37  1  0
  1 38  1  0
  1 39  1  0
  2  3  1  0
  2 40  1  0
  2 41  1  0
  3 36  2  0
  3  4  1  0
  4  5  2  0
  4 42  1  0
  5  6  1  0
  5 43  1  0
  6  7  1  0
  6 35  2  0
  7 34  1  0
  7  8  2  0
  8  9  1  0
  8 44  1  0
  9 10  2  0
 10 11  1  0
 10 33  1  0
 11 12  1  1
 11 13  1  0
 11 29  1  0
 13 45  1  0
 14 13  1  0
 14 27  2  0
 14 15  1  0
 15 16  1  0
 15 17  1  0
 17 18  2  0
 17 46  1  0
 18 19  1  0
 18 27  1  0
 19 26  1  0
 19 20  2  0
 20 21  1  0
 20 47  1  0
 21 22  2  0
 21 48  1  0
 22 23  1  0
 22 25  1  0
 23 24  1  0
 23 49  1  0
 23 50  1  0
 24 51  1  0
 24 52  1  0
 24 53  1  0
 25 26  2  0
 25 54  1  0
 26 55  1  0
 27 28  1  0
 29 30  1  0
 29 31  1  0
 29 32  1  0
 33 34  2  0
 33 56  1  0
 35 36  1  0
 35 57  1  0
 36 58  1  0
M  CHG  1  27   1
M  END
>  <DOCK_score>  (1) 
-56.951828

>  <SMILES>  (1) 
CCc1ccc(-c2cnc([C@H](Nc3[nH]cc(-c4ccc(CC)cc4)[nH+]3)C(F)(F)F)cn2)cc1

$$$$
