O=C(C[N@H+]1CCC2(CC(Oc3cncnc3)C2)C1)c1ccc(Br)cc1
     RDKit          3D

 46 49  0  0  1  0  0  0  0  0999 V2000
  131.7850  130.8680  157.1805 O   0  0  0  0  0  0  0  0  0  0  0  0
  131.0095  131.4851  156.4816 C   0  0  0  0  0  0  0  0  0  0  0  0
  130.1964  132.6096  157.0692 C   0  0  0  0  0  0  0  0  0  0  0  0
  130.5235  132.7579  158.4937 N   0  0  1  0  0  0  0  0  0  0  0  0
  130.6299  131.8473  158.9151 H   0  0  0  0  0  0  0  0  0  0  0  0
  131.7828  133.5209  158.6388 C   0  0  0  0  0  0  0  0  0  0  0  0
  131.5797  134.3914  159.9066 C   0  0  0  0  0  0  0  0  0  0  0  0
  130.0842  134.7414  159.8024 C   0  0  2  0  0  0  0  0  0  0  0  0
  129.7601  136.0754  159.1378 C   0  0  0  0  0  0  0  0  0  0  0  0
  128.6254  136.2120  160.1702 C   0  0  2  0  0  0  0  0  0  0  0  0
  128.4884  137.5331  160.6973 O   0  0  0  0  0  0  0  0  0  0  0  0
  128.0178  137.6449  161.9676 C   0  0  0  0  0  0  0  0  0  0  0  0
  126.7622  137.1533  162.3089 C   0  0  0  0  0  0  0  0  0  0  0  0
  126.3377  137.2862  163.5548 N   0  0  0  0  0  0  0  0  0  0  0  0
  127.0869  137.8747  164.4655 C   0  0  0  0  0  0  0  0  0  0  0  0
  128.2814  138.3531  164.1811 N   0  0  0  0  0  0  0  0  0  0  0  0
  128.7769  138.2592  162.9582 C   0  0  0  0  0  0  0  0  0  0  0  0
  129.4352  135.2676  161.0782 C   0  0  0  0  0  0  0  0  0  0  0  0
  129.4435  133.4990  159.1774 C   0  0  0  0  0  0  0  0  0  0  0  0
  130.8625  131.1358  155.0602 C   0  0  0  0  0  0  0  0  0  0  0  0
  130.5125  132.1180  154.1276 C   0  0  0  0  0  0  0  0  0  0  0  0
  130.3822  131.7845  152.7967 C   0  0  0  0  0  0  0  0  0  0  0  0
  130.5855  130.4781  152.3833 C   0  0  0  0  0  0  0  0  0  0  0  0
  130.3962  130.0287  150.5563 Br  0  0  0  0  0  0  0  0  0  0  0  0
  130.9268  129.4989  153.3019 C   0  0  0  0  0  0  0  0  0  0  0  0
  131.0663  129.8186  154.6354 C   0  0  0  0  0  0  0  0  0  0  0  0
  129.1351  132.3854  156.9615 H   0  0  0  0  0  0  0  0  0  0  0  0
  130.4270  133.5371  156.5451 H   0  0  0  0  0  0  0  0  0  0  0  0
  132.6239  132.8414  158.7763 H   0  0  0  0  0  0  0  0  0  0  0  0
  131.9458  134.1526  157.7655 H   0  0  0  0  0  0  0  0  0  0  0  0
  132.1953  135.2902  159.8665 H   0  0  0  0  0  0  0  0  0  0  0  0
  131.7853  133.8189  160.8111 H   0  0  0  0  0  0  0  0  0  0  0  0
  129.4082  135.9787  158.1108 H   0  0  0  0  0  0  0  0  0  0  0  0
  130.5451  136.8235  159.2486 H   0  0  0  0  0  0  0  0  0  0  0  0
  127.6779  135.7902  159.8350 H   0  0  0  0  0  0  0  0  0  0  0  0
  126.1428  136.6702  161.5678 H   0  0  0  0  0  0  0  0  0  0  0  0
  126.7110  137.9677  165.4738 H   0  0  0  0  0  0  0  0  0  0  0  0
  129.7564  138.6537  162.7321 H   0  0  0  0  0  0  0  0  0  0  0  0
  130.1288  135.7853  161.7408 H   0  0  0  0  0  0  0  0  0  0  0  0
  128.8246  134.5278  161.5959 H   0  0  0  0  0  0  0  0  0  0  0  0
  128.9996  132.8776  159.9551 H   0  0  0  0  0  0  0  0  0  0  0  0
  128.6808  133.7956  158.4573 H   0  0  0  0  0  0  0  0  0  0  0  0
  130.3489  133.1360  154.4492 H   0  0  0  0  0  0  0  0  0  0  0  0
  130.1163  132.5427  152.0750 H   0  0  0  0  0  0  0  0  0  0  0  0
  131.0836  128.4823  152.9726 H   0  0  0  0  0  0  0  0  0  0  0  0
  131.3327  129.0543  155.3504 H   0  0  0  0  0  0  0  0  0  0  0  0
  1  2  2  0
  2  3  1  0
  2 20  1  0
  3  4  1  0
  3 27  1  0
  3 28  1  0
  4  5  1  1
  4 19  1  0
  4  6  1  0
  6  7  1  0
  6 29  1  0
  6 30  1  0
  7 31  1  0
  7 32  1  0
  8  7  1  1
  8 18  1  0
  8  9  1  0
  8 19  1  0
  9 10  1  0
  9 33  1  0
  9 34  1  0
 10 11  1  0
 10 18  1  0
 10 35  1  6
 11 12  1  0
 12 17  1  0
 12 13  2  0
 13 14  1  0
 13 36  1  0
 14 15  2  0
 15 16  1  0
 15 37  1  0
 16 17  2  0
 17 38  1  0
 18 39  1  0
 18 40  1  0
 19 41  1  0
 19 42  1  0
 20 26  1  0
 20 21  2  0
 21 22  1  0
 21 43  1  0
 22 23  2  0
 22 44  1  0
 23 24  1  0
 23 25  1  0
 25 26  2  0
 25 45  1  0
 26 46  1  0
M  CHG  1   4   1
M  END
>  <DOCK_score>  (1) 
-43.247978

>  <SMILES>  (1) 
O=C(C[N@H+]1CCC2(CC(Oc3cncnc3)C2)C1)c1ccc(Br)cc1

$$$$
