OCC[NH2+]C[C@@H]1CC=C(c2n[nH]cc2C2=CCCCC2)CC1
     RDKit          3D

 50 52  0  0  1  0  0  0  0  0999 V2000
  132.4353  133.5948  153.4608 O   0  0  0  0  0  0  0  0  0  0  0  0
  131.3094  132.7217  153.3506 C   0  0  0  0  0  0  0  0  0  0  0  0
  130.9997  132.1135  154.7199 C   0  0  0  0  0  0  0  0  0  0  0  0
  130.6951  133.1873  155.6750 N   0  0  0  0  0  0  0  0  0  0  0  0
  129.8951  133.7094  155.3502 H   0  0  0  0  0  0  0  0  0  0  0  0
  131.4901  133.8036  155.7528 H   0  0  0  0  0  0  0  0  0  0  0  0
  130.3976  132.6033  156.9897 C   0  0  0  0  0  0  0  0  0  0  0  0
  130.0802  133.7216  157.9846 C   0  0  2  0  0  0  0  0  0  0  0  0
  130.9361  134.3909  158.0727 H   0  0  0  0  0  0  0  0  0  0  0  0
  129.7577  133.1166  159.3524 C   0  0  0  0  0  0  0  0  0  0  0  0
  129.1973  134.1691  160.2639 C   0  0  0  0  0  0  0  0  0  0  0  0
  128.7189  135.3173  159.8468 C   0  0  0  0  0  0  0  0  0  0  0  0
  128.1893  136.2572  160.8553 C   0  0  0  0  0  0  0  0  0  0  0  0
  126.9491  136.3180  161.2950 N   0  0  0  0  0  0  0  0  0  0  0  0
  126.8569  137.3454  162.2391 N   0  0  0  0  0  0  0  0  0  0  0  0
  126.0493  137.6001  162.7123 H   0  0  0  0  0  0  0  0  0  0  0  0
  128.0627  137.9266  162.3901 C   0  0  0  0  0  0  0  0  0  0  0  0
  128.9445  137.2964  161.5595 C   0  0  0  0  0  0  0  0  0  0  0  0
  130.3800  137.6067  161.3978 C   0  0  0  0  0  0  0  0  0  0  0  0
  131.2456  136.6598  161.6602 C   0  0  0  0  0  0  0  0  0  0  0  0
  132.7324  136.8346  161.5520 C   0  0  0  0  0  0  0  0  0  0  0  0
  133.0577  138.0699  160.7096 C   0  0  0  0  0  0  0  0  0  0  0  0
  132.2346  139.2505  161.2395 C   0  0  0  0  0  0  0  0  0  0  0  0
  130.7576  138.9855  160.9408 C   0  0  0  0  0  0  0  0  0  0  0  0
  128.6726  135.7290  158.4042 C   0  0  0  0  0  0  0  0  0  0  0  0
  128.8571  134.5101  157.5005 C   0  0  0  0  0  0  0  0  0  0  0  0
  132.3047  134.3291  154.0764 H   0  0  0  0  0  0  0  0  0  0  0  0
  131.5355  131.9250  152.6419 H   0  0  0  0  0  0  0  0  0  0  0  0
  130.4452  133.2857  152.9997 H   0  0  0  0  0  0  0  0  0  0  0  0
  131.8639  131.5495  155.0708 H   0  0  0  0  0  0  0  0  0  0  0  0
  130.1409  131.4475  154.6358 H   0  0  0  0  0  0  0  0  0  0  0  0
  131.2617  132.0392  157.3408 H   0  0  0  0  0  0  0  0  0  0  0  0
  129.5387  131.9373  156.9056 H   0  0  0  0  0  0  0  0  0  0  0  0
  130.6680  132.7070  159.7902 H   0  0  0  0  0  0  0  0  0  0  0  0
  129.0255  132.3186  159.2288 H   0  0  0  0  0  0  0  0  0  0  0  0
  129.1870  133.9696  161.3251 H   0  0  0  0  0  0  0  0  0  0  0  0
  128.2923  138.7477  163.0531 H   0  0  0  0  0  0  0  0  0  0  0  0
  130.8685  135.6978  161.9746 H   0  0  0  0  0  0  0  0  0  0  0  0
  133.1668  135.9522  161.0820 H   0  0  0  0  0  0  0  0  0  0  0  0
  133.1535  136.9566  162.5499 H   0  0  0  0  0  0  0  0  0  0  0  0
  132.7988  137.8812  159.6678 H   0  0  0  0  0  0  0  0  0  0  0  0
  134.1204  138.2987  160.7903 H   0  0  0  0  0  0  0  0  0  0  0  0
  132.5497  140.1686  160.7435 H   0  0  0  0  0  0  0  0  0  0  0  0
  132.3795  139.3442  162.3159 H   0  0  0  0  0  0  0  0  0  0  0  0
  130.1454  139.7200  161.4643 H   0  0  0  0  0  0  0  0  0  0  0  0
  130.5851  139.0704  159.8678 H   0  0  0  0  0  0  0  0  0  0  0  0
  127.7107  136.1959  158.1925 H   0  0  0  0  0  0  0  0  0  0  0  0
  129.4706  136.4447  158.2069 H   0  0  0  0  0  0  0  0  0  0  0  0
  129.0146  134.8357  156.4723 H   0  0  0  0  0  0  0  0  0  0  0  0
  127.9695  133.8799  157.5564 H   0  0  0  0  0  0  0  0  0  0  0  0
  1  2  1  0
  1 27  1  0
  2  3  1  0
  2 28  1  0
  2 29  1  0
  3  4  1  0
  3 30  1  0
  3 31  1  0
  4  5  1  0
  4  6  1  0
  4  7  1  0
  7  8  1  0
  7 32  1  0
  7 33  1  0
  8  9  1  1
  8 26  1  0
  8 10  1  0
 10 11  1  0
 10 34  1  0
 10 35  1  0
 11 12  2  0
 11 36  1  0
 12 13  1  0
 12 25  1  0
 13 18  1  0
 13 14  2  0
 14 15  1  0
 15 16  1  0
 15 17  1  0
 17 18  2  0
 17 37  1  0
 18 19  1  0
 19 24  1  0
 19 20  2  0
 20 21  1  0
 20 38  1  0
 21 22  1  0
 21 39  1  0
 21 40  1  0
 22 23  1  0
 22 41  1  0
 22 42  1  0
 23 24  1  0
 23 43  1  0
 23 44  1  0
 24 45  1  0
 24 46  1  0
 25 26  1  0
 25 47  1  0
 25 48  1  0
 26 49  1  0
 26 50  1  0
M  CHG  1   4   1
M  END
>  <DOCK_score>  (1) 
-42.130131

>  <SMILES>  (1) 
OCC[NH2+]C[C@@H]1CC=C(c2n[nH]cc2C2=CCCCC2)CC1

$$$$
