CCc1ccc(-c2c[nH]c(N[C@H](c3ccc(C)cc3)c3cc(N)ccc3Sc3ccccc3)[nH+]2)cc1
     RDKit          3D

 67 71  0  0  1  0  0  0  0  0999 V2000
  130.4185  129.1896  151.7874 C   0  0  0  0  0  0  0  0  0  0  0  0
  131.6460  129.7938  152.4723 C   0  0  0  0  0  0  0  0  0  0  0  0
  131.2166  130.5290  153.7157 C   0  0  0  0  0  0  0  0  0  0  0  0
  131.1569  129.8607  154.9254 C   0  0  0  0  0  0  0  0  0  0  0  0
  130.7698  130.5304  156.0683 C   0  0  0  0  0  0  0  0  0  0  0  0
  130.4278  131.8799  156.0000 C   0  0  0  0  0  0  0  0  0  0  0  0
  130.0057  132.6037  157.2239 C   0  0  0  0  0  0  0  0  0  0  0  0
  129.3749  132.0610  158.2946 C   0  0  0  0  0  0  0  0  0  0  0  0
  129.1719  133.0780  159.1954 N   0  0  0  0  0  0  0  0  0  0  0  0
  128.7423  133.0010  160.0618 H   0  0  0  0  0  0  0  0  0  0  0  0
  129.6851  134.2136  158.6484 C   0  0  0  0  0  0  0  0  0  0  0  0
  129.6823  135.4658  159.2388 N   0  0  0  0  0  0  0  0  0  0  0  0
  129.0902  135.6483  160.5664 C   0  0  2  0  0  0  0  0  0  0  0  0
  128.0370  135.3690  160.5361 H   0  0  0  0  0  0  0  0  0  0  0  0
  129.2152  137.0926  160.9779 C   0  0  0  0  0  0  0  0  0  0  0  0
  130.2771  137.8515  160.5227 C   0  0  0  0  0  0  0  0  0  0  0  0
  130.3894  139.1776  160.8967 C   0  0  0  0  0  0  0  0  0  0  0  0
  129.4447  139.7420  161.7338 C   0  0  0  0  0  0  0  0  0  0  0  0
  129.5698  141.1864  162.1454 C   0  0  0  0  0  0  0  0  0  0  0  0
  128.3858  138.9817  162.1928 C   0  0  0  0  0  0  0  0  0  0  0  0
  128.2711  137.6569  161.8152 C   0  0  0  0  0  0  0  0  0  0  0  0
  129.8123  134.7777  161.5624 C   0  0  0  0  0  0  0  0  0  0  0  0
  131.1660  134.9481  161.7746 C   0  0  0  0  0  0  0  0  0  0  0  0
  131.8302  134.1497  162.6965 C   0  0  0  0  0  0  0  0  0  0  0  0
  133.2014  134.3262  162.9153 N   0  0  0  0  0  0  0  0  0  0  0  0
  131.1352  133.1723  163.3972 C   0  0  0  0  0  0  0  0  0  0  0  0
  129.7830  132.9980  163.1813 C   0  0  0  0  0  0  0  0  0  0  0  0
  129.1171  133.8004  162.2631 C   0  0  0  0  0  0  0  0  0  0  0  0
  127.3912  133.5777  161.9868 S   0  0  0  0  0  0  0  0  0  0  0  0
  126.6578  134.6627  163.1656 C   0  0  0  0  0  0  0  0  0  0  0  0
  127.3075  134.9301  164.3648 C   0  0  0  0  0  0  0  0  0  0  0  0
  126.7321  135.7847  165.2842 C   0  0  0  0  0  0  0  0  0  0  0  0
  125.5060  136.3663  165.0172 C   0  0  0  0  0  0  0  0  0  0  0  0
  124.8539  136.0981  163.8273 C   0  0  0  0  0  0  0  0  0  0  0  0
  125.4258  135.2487  162.9010 C   0  0  0  0  0  0  0  0  0  0  0  0
  130.1877  133.9250  157.4729 N   0  0  0  0  0  0  0  0  0  0  0  0
  130.6186  134.5558  156.8751 H   0  0  0  0  0  0  0  0  0  0  0  0
  130.4845  132.5467  154.7774 C   0  0  0  0  0  0  0  0  0  0  0  0
  130.8784  131.8684  153.6419 C   0  0  0  0  0  0  0  0  0  0  0  0
  129.7245  129.9858  151.5173 H   0  0  0  0  0  0  0  0  0  0  0  0
  130.7291  128.6579  150.8880 H   0  0  0  0  0  0  0  0  0  0  0  0
  129.9272  128.4951  152.4688 H   0  0  0  0  0  0  0  0  0  0  0  0
  132.3399  128.9978  152.7423 H   0  0  0  0  0  0  0  0  0  0  0  0
  132.1373  130.4883  151.7909 H   0  0  0  0  0  0  0  0  0  0  0  0
  131.4176  128.8139  154.9762 H   0  0  0  0  0  0  0  0  0  0  0  0
  130.7282  130.0089  157.0131 H   0  0  0  0  0  0  0  0  0  0  0  0
  129.0869  131.0272  158.4157 H   0  0  0  0  0  0  0  0  0  0  0  0
  130.0722  136.2222  158.7736 H   0  0  0  0  0  0  0  0  0  0  0  0
  131.0171  137.4094  159.8722 H   0  0  0  0  0  0  0  0  0  0  0  0
  131.2169  139.7717  160.5378 H   0  0  0  0  0  0  0  0  0  0  0  0
  130.1562  141.2536  163.0617 H   0  0  0  0  0  0  0  0  0  0  0  0
  130.0672  141.7479  161.3542 H   0  0  0  0  0  0  0  0  0  0  0  0
  128.5774  141.6023  162.3174 H   0  0  0  0  0  0  0  0  0  0  0  0
  127.6480  139.4227  162.8467 H   0  0  0  0  0  0  0  0  0  0  0  0
  127.4437  137.0628  162.1744 H   0  0  0  0  0  0  0  0  0  0  0  0
  131.7074  135.7048  161.2263 H   0  0  0  0  0  0  0  0  0  0  0  0
  133.6663  133.7658  163.5561 H   0  0  0  0  0  0  0  0  0  0  0  0
  133.6868  135.0088  162.4260 H   0  0  0  0  0  0  0  0  0  0  0  0
  131.6529  132.5484  164.1108 H   0  0  0  0  0  0  0  0  0  0  0  0
  129.2428  132.2378  163.7259 H   0  0  0  0  0  0  0  0  0  0  0  0
  128.2631  134.4730  164.5757 H   0  0  0  0  0  0  0  0  0  0  0  0
  127.2382  135.9961  166.2145 H   0  0  0  0  0  0  0  0  0  0  0  0
  125.0565  137.0314  165.7398 H   0  0  0  0  0  0  0  0  0  0  0  0
  123.8964  136.5538  163.6224 H   0  0  0  0  0  0  0  0  0  0  0  0
  124.9160  135.0397  161.9721 H   0  0  0  0  0  0  0  0  0  0  0  0
  130.2203  133.5923  154.7187 H   0  0  0  0  0  0  0  0  0  0  0  0
  130.9229  132.3841  152.6942 H   0  0  0  0  0  0  0  0  0  0  0  0
  1  2  1  0
  1 40  1  0
  1 41  1  0
  1 42  1  0
  2  3  1  0
  2 43  1  0
  2 44  1  0
  3 39  2  0
  3  4  1  0
  4  5  2  0
  4 45  1  0
  5  6  1  0
  5 46  1  0
  6  7  1  0
  6 38  2  0
  7 36  1  0
  7  8  2  0
  8  9  1  0
  8 47  1  0
  9 10  1  0
  9 11  1  0
 11 12  1  0
 11 36  2  0
 12 13  1  0
 12 48  1  0
 13 14  1  6
 13 15  1  0
 13 22  1  0
 15 21  1  0
 15 16  2  0
 16 17  1  0
 16 49  1  0
 17 18  2  0
 17 50  1  0
 18 19  1  0
 18 20  1  0
 19 51  1  0
 19 52  1  0
 19 53  1  0
 20 21  2  0
 20 54  1  0
 21 55  1  0
 22 28  1  0
 22 23  2  0
 23 24  1  0
 23 56  1  0
 24 25  1  0
 24 26  2  0
 25 57  1  0
 25 58  1  0
 26 27  1  0
 26 59  1  0
 27 28  2  0
 27 60  1  0
 28 29  1  0
 29 30  1  0
 30 35  1  0
 30 31  2  0
 31 32  1  0
 31 61  1  0
 32 33  2  0
 32 62  1  0
 33 34  1  0
 33 63  1  0
 34 35  2  0
 34 64  1  0
 35 65  1  0
 36 37  1  0
 38 39  1  0
 38 66  1  0
 39 67  1  0
M  CHG  1  36   1
M  END
>  <DOCK_score>  (1) 
-56.1661

>  <SMILES>  (1) 
CCc1ccc(-c2c[nH]c(N[C@H](c3ccc(C)cc3)c3cc(N)ccc3Sc3ccccc3)[nH+]2)cc1

$$$$
