Nc1ccc(-c2c[nH]c(Nc3ccc(NCCBr)cc3)[nH+]2)cc1
     RDKit          3D

 42 44  0  0  1  0  0  0  0  0999 V2000
  131.1557  129.2006  152.1008 N   0  0  0  0  0  0  0  0  0  0  0  0
  130.9156  129.9676  153.2434 C   0  0  0  0  0  0  0  0  0  0  0  0
  130.0496  131.0533  153.1808 C   0  0  0  0  0  0  0  0  0  0  0  0
  129.8111  131.8119  154.3074 C   0  0  0  0  0  0  0  0  0  0  0  0
  130.4389  131.4892  155.5094 C   0  0  0  0  0  0  0  0  0  0  0  0
  130.1838  132.3039  156.7228 C   0  0  0  0  0  0  0  0  0  0  0  0
  129.6589  131.8545  157.8897 C   0  0  0  0  0  0  0  0  0  0  0  0
  129.5999  132.9317  158.7414 N   0  0  0  0  0  0  0  0  0  0  0  0
  129.2724  132.9252  159.6543 H   0  0  0  0  0  0  0  0  0  0  0  0
  130.0832  134.0099  158.0656 C   0  0  0  0  0  0  0  0  0  0  0  0
  130.1921  135.2954  158.5695 N   0  0  0  0  0  0  0  0  0  0  0  0
  129.2885  135.7459  159.5404 C   0  0  0  0  0  0  0  0  0  0  0  0
  129.6902  136.6869  160.4793 C   0  0  0  0  0  0  0  0  0  0  0  0
  128.7981  137.1345  161.4333 C   0  0  0  0  0  0  0  0  0  0  0  0
  127.5022  136.6357  161.4606 C   0  0  0  0  0  0  0  0  0  0  0  0
  126.5997  137.0851  162.4312 N   0  0  0  0  0  0  0  0  0  0  0  0
  127.0959  137.7178  163.6558 C   0  0  0  0  0  0  0  0  0  0  0  0
  127.2168  139.2273  163.4370 C   0  0  0  0  0  0  0  0  0  0  0  0
  127.8827  140.0765  165.0803 Br  0  0  0  0  0  0  0  0  0  0  0  0
  127.1021  135.6907  160.5248 C   0  0  0  0  0  0  0  0  0  0  0  0
  127.9928  135.2470  159.5675 C   0  0  0  0  0  0  0  0  0  0  0  0
  130.4339  133.6296  156.8610 N   0  0  0  0  0  0  0  0  0  0  0  0
  130.8123  134.2048  156.1776 H   0  0  0  0  0  0  0  0  0  0  0  0
  131.3112  130.4036  155.5682 C   0  0  0  0  0  0  0  0  0  0  0  0
  131.5428  129.6446  154.4405 C   0  0  0  0  0  0  0  0  0  0  0  0
  130.7184  129.4260  151.2646 H   0  0  0  0  0  0  0  0  0  0  0  0
  131.7601  128.4435  152.1432 H   0  0  0  0  0  0  0  0  0  0  0  0
  129.5634  131.3029  152.2493 H   0  0  0  0  0  0  0  0  0  0  0  0
  129.1379  132.6550  154.2585 H   0  0  0  0  0  0  0  0  0  0  0  0
  129.3503  130.8431  158.1092 H   0  0  0  0  0  0  0  0  0  0  0  0
  130.8916  135.8850  158.2472 H   0  0  0  0  0  0  0  0  0  0  0  0
  130.6993  137.0714  160.4610 H   0  0  0  0  0  0  0  0  0  0  0  0
  129.1091  137.8694  162.1611 H   0  0  0  0  0  0  0  0  0  0  0  0
  125.6456  136.9778  162.2931 H   0  0  0  0  0  0  0  0  0  0  0  0
  126.4005  137.5237  164.4725 H   0  0  0  0  0  0  0  0  0  0  0  0
  128.0740  137.3074  163.9062 H   0  0  0  0  0  0  0  0  0  0  0  0
  127.9121  139.4214  162.6203 H   0  0  0  0  0  0  0  0  0  0  0  0
  126.2385  139.6377  163.1867 H   0  0  0  0  0  0  0  0  0  0  0  0
  126.0944  135.3031  160.5458 H   0  0  0  0  0  0  0  0  0  0  0  0
  127.6818  134.5119  158.8401 H   0  0  0  0  0  0  0  0  0  0  0  0
  131.8024  130.1548  156.4973 H   0  0  0  0  0  0  0  0  0  0  0  0
  132.2154  128.8009  154.4866 H   0  0  0  0  0  0  0  0  0  0  0  0
  1  2  1  0
  1 26  1  0
  1 27  1  0
  2 25  2  0
  2  3  1  0
  3  4  2  0
  3 28  1  0
  4  5  1  0
  4 29  1  0
  5  6  1  0
  5 24  2  0
  6 22  1  0
  6  7  2  0
  7  8  1  0
  7 30  1  0
  8  9  1  0
  8 10  1  0
 10 11  1  0
 10 22  2  0
 11 12  1  0
 11 31  1  0
 12 21  1  0
 12 13  2  0
 13 14  1  0
 13 32  1  0
 14 15  2  0
 14 33  1  0
 15 16  1  0
 15 20  1  0
 16 17  1  0
 16 34  1  0
 17 18  1  0
 17 35  1  0
 17 36  1  0
 18 19  1  0
 18 37  1  0
 18 38  1  0
 20 21  2  0
 20 39  1  0
 21 40  1  0
 22 23  1  0
 24 25  1  0
 24 41  1  0
 25 42  1  0
M  CHG  1  22   1
M  END
>  <DOCK_score>  (1) 
-52.909508

>  <SMILES>  (1) 
Nc1ccc(-c2c[nH]c(Nc3ccc(NCCBr)cc3)[nH+]2)cc1

$$$$
