O[C@H](C=CC[C@H](Nc1[nH]cc(-c2cccnc2)[nH+]1)c1ccccc1)c1ccc(Br)cc1
     RDKit          3D

 55 58  0  0  1  0  0  0  0  0999 V2000
  134.3062  138.1405  160.5165 O   0  0  0  0  0  0  0  0  0  0  0  0
  133.8405  137.7366  161.8059 C   0  0  2  0  0  0  0  0  0  0  0  0
  134.3087  136.7918  162.0817 H   0  0  0  0  0  0  0  0  0  0  0  0
  132.3439  137.5635  161.7679 C   0  0  0  0  0  0  0  0  0  0  0  0
  131.7547  137.1988  160.6562 C   0  0  0  0  0  0  0  0  0  0  0  0
  130.2582  137.0256  160.6181 C   0  0  0  0  0  0  0  0  0  0  0  0
  129.9212  135.5838  160.2332 C   0  0  2  0  0  0  0  0  0  0  0  0
  130.3472  134.9021  160.9694 H   0  0  0  0  0  0  0  0  0  0  0  0
  130.4807  135.2876  158.9121 N   0  0  0  0  0  0  0  0  0  0  0  0
  130.3031  134.0349  158.3502 C   0  0  0  0  0  0  0  0  0  0  0  0
  129.6365  132.9961  158.9236 N   0  0  0  0  0  0  0  0  0  0  0  0
  129.2041  133.0002  159.7919 H   0  0  0  0  0  0  0  0  0  0  0  0
  129.6865  131.9417  158.0445 C   0  0  0  0  0  0  0  0  0  0  0  0
  130.3887  132.3632  156.9638 C   0  0  0  0  0  0  0  0  0  0  0  0
  130.7027  131.5580  155.7583 C   0  0  0  0  0  0  0  0  0  0  0  0
  130.8443  132.1726  154.5107 C   0  0  0  0  0  0  0  0  0  0  0  0
  131.1434  131.3779  153.4176 C   0  0  0  0  0  0  0  0  0  0  0  0
  131.2797  130.0123  153.5910 C   0  0  0  0  0  0  0  0  0  0  0  0
  131.1349  129.4600  154.7798 N   0  0  0  0  0  0  0  0  0  0  0  0
  130.8557  130.1761  155.8498 C   0  0  0  0  0  0  0  0  0  0  0  0
  130.7540  133.6518  157.1806 N   0  0  0  0  0  0  0  0  0  0  0  0
  131.2663  134.2019  156.5676 H   0  0  0  0  0  0  0  0  0  0  0  0
  128.4247  135.4107  160.1951 C   0  0  0  0  0  0  0  0  0  0  0  0
  127.7454  135.0158  161.3324 C   0  0  0  0  0  0  0  0  0  0  0  0
  126.3720  134.8612  161.2986 C   0  0  0  0  0  0  0  0  0  0  0  0
  125.6792  135.0928  160.1251 C   0  0  0  0  0  0  0  0  0  0  0  0
  126.3591  135.4828  158.9864 C   0  0  0  0  0  0  0  0  0  0  0  0
  127.7318  135.6416  159.0214 C   0  0  0  0  0  0  0  0  0  0  0  0
  134.1986  138.7903  162.8220 C   0  0  0  0  0  0  0  0  0  0  0  0
  135.4035  138.7191  163.4961 C   0  0  0  0  0  0  0  0  0  0  0  0
  135.7344  139.6878  164.4247 C   0  0  0  0  0  0  0  0  0  0  0  0
  134.8549  140.7238  164.6865 C   0  0  0  0  0  0  0  0  0  0  0  0
  135.3040  142.0446  165.9630 Br  0  0  0  0  0  0  0  0  0  0  0  0
  133.6475  140.7911  164.0160 C   0  0  0  0  0  0  0  0  0  0  0  0
  133.3197  139.8247  163.0839 C   0  0  0  0  0  0  0  0  0  0  0  0
  134.1099  137.5083  159.8117 H   0  0  0  0  0  0  0  0  0  0  0  0
  131.7571  137.7399  162.6572 H   0  0  0  0  0  0  0  0  0  0  0  0
  132.3415  137.0223  159.7668 H   0  0  0  0  0  0  0  0  0  0  0  0
  129.8418  137.2462  161.6010 H   0  0  0  0  0  0  0  0  0  0  0  0
  129.8322  137.7072  159.8818 H   0  0  0  0  0  0  0  0  0  0  0  0
  130.9758  135.9690  158.4311 H   0  0  0  0  0  0  0  0  0  0  0  0
  129.2530  130.9630  158.1883 H   0  0  0  0  0  0  0  0  0  0  0  0
  130.7276  133.2409  154.4031 H   0  0  0  0  0  0  0  0  0  0  0  0
  131.2645  131.8187  152.4391 H   0  0  0  0  0  0  0  0  0  0  0  0
  131.5086  129.3888  152.7395 H   0  0  0  0  0  0  0  0  0  0  0  0
  130.7446  129.6875  156.8066 H   0  0  0  0  0  0  0  0  0  0  0  0
  128.2872  134.8312  162.2482 H   0  0  0  0  0  0  0  0  0  0  0  0
  125.8408  134.5569  162.1883 H   0  0  0  0  0  0  0  0  0  0  0  0
  124.6067  134.9695  160.0979 H   0  0  0  0  0  0  0  0  0  0  0  0
  125.8178  135.6637  158.0694 H   0  0  0  0  0  0  0  0  0  0  0  0
  128.2631  135.9461  158.1317 H   0  0  0  0  0  0  0  0  0  0  0  0
  136.0880  137.9085  163.2942 H   0  0  0  0  0  0  0  0  0  0  0  0
  136.6776  139.6346  164.9480 H   0  0  0  0  0  0  0  0  0  0  0  0
  132.9607  141.5989  164.2208 H   0  0  0  0  0  0  0  0  0  0  0  0
  132.3770  139.8778  162.5597 H   0  0  0  0  0  0  0  0  0  0  0  0
  1  2  1  0
  1 36  1  0
  2  3  1  1
  2  4  1  0
  2 29  1  0
  4  5  2  0
  4 37  1  0
  5  6  1  0
  5 38  1  0
  6  7  1  0
  6 39  1  0
  6 40  1  0
  7  8  1  1
  7  9  1  0
  7 23  1  0
  9 41  1  0
 10  9  1  0
 10 21  2  0
 10 11  1  0
 11 12  1  0
 11 13  1  0
 13 14  2  0
 13 42  1  0
 14 15  1  0
 14 21  1  0
 15 20  1  0
 15 16  2  0
 16 17  1  0
 16 43  1  0
 17 18  2  0
 17 44  1  0
 18 19  1  0
 18 45  1  0
 19 20  2  0
 20 46  1  0
 21 22  1  0
 23 28  1  0
 23 24  2  0
 24 25  1  0
 24 47  1  0
 25 26  2  0
 25 48  1  0
 26 27  1  0
 26 49  1  0
 27 28  2  0
 27 50  1  0
 28 51  1  0
 29 35  1  0
 29 30  2  0
 30 31  1  0
 30 52  1  0
 31 32  2  0
 31 53  1  0
 32 33  1  0
 32 34  1  0
 34 35  2  0
 34 54  1  0
 35 55  1  0
M  CHG  1  21   1
M  END
>  <DOCK_score>  (1) 
-62.744926

>  <SMILES>  (1) 
O[C@H](C=CC[C@H](Nc1[nH]cc(-c2cccnc2)[nH+]1)c1ccccc1)c1ccc(Br)cc1

$$$$
