CCc1ccc(-c2c[nH]c(N[C@H](C3=CCCCC3)C3CCCCC3)[nH+]2)cc1
     RDKit          3D

 61 64  0  0  1  0  0  0  0  0999 V2000
  130.3329  128.9363  151.3989 C   0  0  0  0  0  0  0  0  0  0  0  0
  131.5965  129.6159  151.9307 C   0  0  0  0  0  0  0  0  0  0  0  0
  131.2842  130.3082  153.2322 C   0  0  0  0  0  0  0  0  0  0  0  0
  131.4263  129.6270  154.4271 C   0  0  0  0  0  0  0  0  0  0  0  0
  131.1473  130.2584  155.6221 C   0  0  0  0  0  0  0  0  0  0  0  0
  130.7110  131.5822  155.6226 C   0  0  0  0  0  0  0  0  0  0  0  0
  130.4042  132.2644  156.9034 C   0  0  0  0  0  0  0  0  0  0  0  0
  129.9547  131.6702  158.0364 C   0  0  0  0  0  0  0  0  0  0  0  0
  129.8034  132.6627  158.9740 N   0  0  0  0  0  0  0  0  0  0  0  0
  129.4953  132.5487  159.8867 H   0  0  0  0  0  0  0  0  0  0  0  0
  130.1652  133.8355  158.3860 C   0  0  0  0  0  0  0  0  0  0  0  0
  130.1563  135.0790  158.9943 N   0  0  0  0  0  0  0  0  0  0  0  0
  129.7306  135.2086  160.3902 C   0  0  2  0  0  0  0  0  0  0  0  0
  130.1220  134.3717  160.9685 H   0  0  0  0  0  0  0  0  0  0  0  0
  128.2251  135.2059  160.4584 C   0  0  0  0  0  0  0  0  0  0  0  0
  127.5707  135.6803  159.4474 C   0  0  0  0  0  0  0  0  0  0  0  0
  126.0736  135.7487  159.3720 C   0  0  0  0  0  0  0  0  0  0  0  0
  125.4490  134.8311  160.4252 C   0  0  0  0  0  0  0  0  0  0  0  0
  126.1196  135.1153  161.7753 C   0  0  0  0  0  0  0  0  0  0  0  0
  127.5780  134.6586  161.6970 C   0  0  0  0  0  0  0  0  0  0  0  0
  130.2650  136.5211  160.9667 C   0  0  0  0  0  0  0  0  0  0  0  0
  129.7156  137.6959  160.1550 C   0  0  0  0  0  0  0  0  0  0  0  0
  130.2498  139.0085  160.7316 C   0  0  0  0  0  0  0  0  0  0  0  0
  131.7782  139.0111  160.6621 C   0  0  0  0  0  0  0  0  0  0  0  0
  132.3278  137.8364  161.4740 C   0  0  0  0  0  0  0  0  0  0  0  0
  131.7934  136.5238  160.8973 C   0  0  0  0  0  0  0  0  0  0  0  0
  130.5292  133.5926  157.1505 N   0  0  0  0  0  0  0  0  0  0  0  0
  130.8366  134.2567  156.5139 H   0  0  0  0  0  0  0  0  0  0  0  0
  130.5644  132.2625  154.4150 C   0  0  0  0  0  0  0  0  0  0  0  0
  130.8517  131.6228  153.2263 C   0  0  0  0  0  0  0  0  0  0  0  0
  130.5587  128.4351  150.4577 H   0  0  0  0  0  0  0  0  0  0  0  0
  129.9813  128.2038  152.1256 H   0  0  0  0  0  0  0  0  0  0  0  0
  129.5589  129.6859  151.2348 H   0  0  0  0  0  0  0  0  0  0  0  0
  132.3706  128.8663  152.0947 H   0  0  0  0  0  0  0  0  0  0  0  0
  131.9483  130.3483  151.2042 H   0  0  0  0  0  0  0  0  0  0  0  0
  131.7599  128.5998  154.4252 H   0  0  0  0  0  0  0  0  0  0  0  0
  131.2630  129.7265  156.5549 H   0  0  0  0  0  0  0  0  0  0  0  0
  129.7537  130.6182  158.1750 H   0  0  0  0  0  0  0  0  0  0  0  0
  130.4319  135.8645  158.4965 H   0  0  0  0  0  0  0  0  0  0  0  0
  128.1376  136.0465  158.6042 H   0  0  0  0  0  0  0  0  0  0  0  0
  125.7450  135.4369  158.3805 H   0  0  0  0  0  0  0  0  0  0  0  0
  125.7545  136.7753  159.5521 H   0  0  0  0  0  0  0  0  0  0  0  0
  125.6119  133.7899  160.1471 H   0  0  0  0  0  0  0  0  0  0  0  0
  124.3800  135.0311  160.4978 H   0  0  0  0  0  0  0  0  0  0  0  0
  125.6051  134.5649  162.5629 H   0  0  0  0  0  0  0  0  0  0  0  0
  126.0811  136.1840  161.9857 H   0  0  0  0  0  0  0  0  0  0  0  0
  127.6147  133.5694  161.6726 H   0  0  0  0  0  0  0  0  0  0  0  0
  128.1163  135.0167  162.5744 H   0  0  0  0  0  0  0  0  0  0  0  0
  129.9483  136.6173  162.0052 H   0  0  0  0  0  0  0  0  0  0  0  0
  130.0322  137.5995  159.1165 H   0  0  0  0  0  0  0  0  0  0  0  0
  128.6266  137.6939  160.2045 H   0  0  0  0  0  0  0  0  0  0  0  0
  129.9330  139.1047  161.7701 H   0  0  0  0  0  0  0  0  0  0  0  0
  129.8584  139.8454  160.1532 H   0  0  0  0  0  0  0  0  0  0  0  0
  132.1590  139.9463  161.0729 H   0  0  0  0  0  0  0  0  0  0  0  0
  132.0950  138.9149  159.6236 H   0  0  0  0  0  0  0  0  0  0  0  0
  132.0110  137.9326  162.5125 H   0  0  0  0  0  0  0  0  0  0  0  0
  133.4167  137.8384  161.4245 H   0  0  0  0  0  0  0  0  0  0  0  0
  132.1848  135.6869  161.4756 H   0  0  0  0  0  0  0  0  0  0  0  0
  132.1101  136.4276  159.8588 H   0  0  0  0  0  0  0  0  0  0  0  0
  130.2263  133.2881  154.4095 H   0  0  0  0  0  0  0  0  0  0  0  0
  130.7382  132.1488  152.2900 H   0  0  0  0  0  0  0  0  0  0  0  0
  1  2  1  0
  1 31  1  0
  1 32  1  0
  1 33  1  0
  2  3  1  0
  2 34  1  0
  2 35  1  0
  3 30  2  0
  3  4  1  0
  4  5  2  0
  4 36  1  0
  5  6  1  0
  5 37  1  0
  6  7  1  0
  6 29  2  0
  7 27  1  0
  7  8  2  0
  8  9  1  0
  8 38  1  0
  9 10  1  0
  9 11  1  0
 11 12  1  0
 11 27  2  0
 12 13  1  0
 12 39  1  0
 13 14  1  1
 13 15  1  0
 13 21  1  0
 15 20  1  0
 15 16  2  0
 16 17  1  0
 16 40  1  0
 17 18  1  0
 17 41  1  0
 17 42  1  0
 18 19  1  0
 18 43  1  0
 18 44  1  0
 19 20  1  0
 19 45  1  0
 19 46  1  0
 20 47  1  0
 20 48  1  0
 21 26  1  0
 21 22  1  0
 21 49  1  0
 22 23  1  0
 22 50  1  0
 22 51  1  0
 23 24  1  0
 23 52  1  0
 23 53  1  0
 24 25  1  0
 24 54  1  0
 24 55  1  0
 25 26  1  0
 25 56  1  0
 25 57  1  0
 26 58  1  0
 26 59  1  0
 27 28  1  0
 29 30  1  0
 29 60  1  0
 30 61  1  0
M  CHG  1  27   1
M  END
>  <DOCK_score>  (1) 
-56.433918

>  <SMILES>  (1) 
CCc1ccc(-c2c[nH]c(N[C@H](C3=CCCCC3)C3CCCCC3)[nH+]2)cc1

$$$$
