NC(=O)C=C[C@H](Nc1[nH]cc(-c2ccc(N)cc2)[nH+]1)c1ccccc1
     RDKit          3D

 45 47  0  0  1  0  0  0  0  0999 V2000
  131.1725  138.2774  163.1930 N   0  0  0  0  0  0  0  0  0  0  0  0
  130.4783  138.2062  162.0399 C   0  0  0  0  0  0  0  0  0  0  0  0
  130.1365  139.2258  161.4720 O   0  0  0  0  0  0  0  0  0  0  0  0
  130.1343  136.8952  161.4683 C   0  0  0  0  0  0  0  0  0  0  0  0
  129.4493  136.8248  160.3306 C   0  0  0  0  0  0  0  0  0  0  0  0
  129.0969  135.4817  159.7450 C   0  0  2  0  0  0  0  0  0  0  0  0
  128.9807  134.7543  160.5484 H   0  0  0  0  0  0  0  0  0  0  0  0
  130.1660  135.0464  158.8429 N   0  0  0  0  0  0  0  0  0  0  0  0
  130.0643  133.8334  158.1836 C   0  0  0  0  0  0  0  0  0  0  0  0
  129.4076  132.7339  158.6435 N   0  0  0  0  0  0  0  0  0  0  0  0
  128.9312  132.6594  159.4851 H   0  0  0  0  0  0  0  0  0  0  0  0
  129.5446  131.7481  157.6952 C   0  0  0  0  0  0  0  0  0  0  0  0
  130.2803  132.2739  156.6848 C   0  0  0  0  0  0  0  0  0  0  0  0
  130.6811  131.5732  155.4402 C   0  0  0  0  0  0  0  0  0  0  0  0
  130.2758  132.0652  154.2005 C   0  0  0  0  0  0  0  0  0  0  0  0
  130.6545  131.4154  153.0448 C   0  0  0  0  0  0  0  0  0  0  0  0
  131.4297  130.2640  153.1158 C   0  0  0  0  0  0  0  0  0  0  0  0
  131.8079  129.6046  151.9437 N   0  0  0  0  0  0  0  0  0  0  0  0
  131.8304  129.7687  154.3509 C   0  0  0  0  0  0  0  0  0  0  0  0
  131.4590  130.4184  155.5090 C   0  0  0  0  0  0  0  0  0  0  0  0
  130.5800  133.5563  157.0108 N   0  0  0  0  0  0  0  0  0  0  0  0
  131.0955  134.1697  156.4640 H   0  0  0  0  0  0  0  0  0  0  0  0
  127.8051  135.5920  158.9767 C   0  0  0  0  0  0  0  0  0  0  0  0
  126.5999  135.3656  159.6147 C   0  0  0  0  0  0  0  0  0  0  0  0
  125.4148  135.4712  158.9110 C   0  0  0  0  0  0  0  0  0  0  0  0
  125.4353  135.7941  157.5670 C   0  0  0  0  0  0  0  0  0  0  0  0
  126.6409  136.0153  156.9278 C   0  0  0  0  0  0  0  0  0  0  0  0
  127.8258  135.9142  157.6325 C   0  0  0  0  0  0  0  0  0  0  0  0
  131.4453  137.4642  163.6459 H   0  0  0  0  0  0  0  0  0  0  0  0
  131.3994  139.1420  163.5699 H   0  0  0  0  0  0  0  0  0  0  0  0
  130.4378  135.9896  161.9727 H   0  0  0  0  0  0  0  0  0  0  0  0
  129.1458  137.7302  159.8261 H   0  0  0  0  0  0  0  0  0  0  0  0
  130.9451  135.6083  158.7076 H   0  0  0  0  0  0  0  0  0  0  0  0
  129.1433  130.7466  157.7452 H   0  0  0  0  0  0  0  0  0  0  0  0
  129.6693  132.9571  154.1452 H   0  0  0  0  0  0  0  0  0  0  0  0
  130.3442  131.7987  152.0838 H   0  0  0  0  0  0  0  0  0  0  0  0
  132.3494  128.8013  151.9922 H   0  0  0  0  0  0  0  0  0  0  0  0
  131.5288  129.9499  151.0813 H   0  0  0  0  0  0  0  0  0  0  0  0
  132.4326  128.8737  154.4036 H   0  0  0  0  0  0  0  0  0  0  0  0
  131.7707  130.0330  156.4685 H   0  0  0  0  0  0  0  0  0  0  0  0
  126.5840  135.1097  160.6638 H   0  0  0  0  0  0  0  0  0  0  0  0
  124.4729  135.2986  159.4105 H   0  0  0  0  0  0  0  0  0  0  0  0
  124.5095  135.8739  157.0166 H   0  0  0  0  0  0  0  0  0  0  0  0
  126.6570  136.2677  155.8777 H   0  0  0  0  0  0  0  0  0  0  0  0
  128.7676  136.0870  157.1331 H   0  0  0  0  0  0  0  0  0  0  0  0
  1  2  1  0
  1 29  1  0
  1 30  1  0
  2  3  2  0
  2  4  1  0
  4  5  2  0
  4 31  1  0
  5  6  1  0
  5 32  1  0
  6  7  1  1
  6  8  1  0
  6 23  1  0
  8 33  1  0
  9  8  1  0
  9 21  2  0
  9 10  1  0
 10 11  1  0
 10 12  1  0
 12 13  2  0
 12 34  1  0
 13 14  1  0
 13 21  1  0
 14 20  1  0
 14 15  2  0
 15 16  1  0
 15 35  1  0
 16 17  2  0
 16 36  1  0
 17 18  1  0
 17 19  1  0
 18 37  1  0
 18 38  1  0
 19 20  2  0
 19 39  1  0
 20 40  1  0
 21 22  1  0
 23 28  1  0
 23 24  2  0
 24 25  1  0
 24 41  1  0
 25 26  2  0
 25 42  1  0
 26 27  1  0
 26 43  1  0
 27 28  2  0
 27 44  1  0
 28 45  1  0
M  CHG  1  21   1
M  END
>  <DOCK_score>  (1) 
-57.586426

>  <SMILES>  (1) 
NC(=O)C=C[C@H](Nc1[nH]cc(-c2ccc(N)cc2)[nH+]1)c1ccccc1

$$$$
