Cc1nc(-c2cccc([C@@H]([NH3+])C(=O)Nc3n[nH]cc3C3CC3)c2)[nH]c1C
     RDKit          3D

 49 52  0  0  1  0  0  0  0  0999 V2000
  129.7251  131.5625  152.4986 C   0  0  0  0  0  0  0  0  0  0  0  0
  130.3117  130.8856  153.7104 C   0  0  0  0  0  0  0  0  0  0  0  0
  130.3533  131.3935  154.9475 N   0  0  0  0  0  0  0  0  0  0  0  0
  130.9379  130.5323  155.7502 C   0  0  0  0  0  0  0  0  0  0  0  0
  131.1793  130.7231  157.1971 C   0  0  0  0  0  0  0  0  0  0  0  0
  131.2023  129.6225  158.0546 C   0  0  0  0  0  0  0  0  0  0  0  0
  131.4223  129.8077  159.4039 C   0  0  0  0  0  0  0  0  0  0  0  0
  131.6200  131.0813  159.9072 C   0  0  0  0  0  0  0  0  0  0  0  0
  131.5982  132.1765  159.0624 C   0  0  0  0  0  0  0  0  0  0  0  0
  131.8149  133.5600  159.6192 C   0  0  1  0  0  0  0  0  0  0  0  0
  132.4627  133.5023  160.4939 H   0  0  0  0  0  0  0  0  0  0  0  0
  132.4461  134.4058  158.5973 N   0  0  0  0  0  0  0  0  0  0  0  0
  132.5911  135.3321  158.9702 H   0  0  0  0  0  0  0  0  0  0  0  0
  133.3342  134.0069  158.3323 H   0  0  0  0  0  0  0  0  0  0  0  0
  131.8463  134.4592  157.7877 H   0  0  0  0  0  0  0  0  0  0  0  0
  130.4883  134.1555  160.0150 C   0  0  0  0  0  0  0  0  0  0  0  0
  130.4416  135.2712  160.4884 O   0  0  0  0  0  0  0  0  0  0  0  0
  129.3540  133.4484  159.8430 N   0  0  0  0  0  0  0  0  0  0  0  0
  128.1203  134.0023  160.2111 C   0  0  0  0  0  0  0  0  0  0  0  0
  127.9342  135.1927  160.7312 N   0  0  0  0  0  0  0  0  0  0  0  0
  126.5614  135.3639  160.9503 N   0  0  0  0  0  0  0  0  0  0  0  0
  126.1380  136.1523  161.3244 H   0  0  0  0  0  0  0  0  0  0  0  0
  125.9312  134.2377  160.5548 C   0  0  0  0  0  0  0  0  0  0  0  0
  126.8680  133.3783  160.0935 C   0  0  0  0  0  0  0  0  0  0  0  0
  126.6130  131.9961  159.5498 C   0  0  0  0  0  0  0  0  0  0  0  0
  125.7728  131.0448  160.4041 C   0  0  0  0  0  0  0  0  0  0  0  0
  127.2800  130.8206  160.2670 C   0  0  0  0  0  0  0  0  0  0  0  0
  131.3792  132.0047  157.7109 C   0  0  0  0  0  0  0  0  0  0  0  0
  131.2785  129.4302  155.0221 N   0  0  0  0  0  0  0  0  0  0  0  0
  131.7198  128.6329  155.3546 H   0  0  0  0  0  0  0  0  0  0  0  0
  130.8790  129.6623  153.7337 C   0  0  0  0  0  0  0  0  0  0  0  0
  131.0419  128.7277  152.5627 C   0  0  0  0  0  0  0  0  0  0  0  0
  128.6691  131.3057  152.4144 H   0  0  0  0  0  0  0  0  0  0  0  0
  129.8293  132.6429  152.5998 H   0  0  0  0  0  0  0  0  0  0  0  0
  130.2525  131.2288  151.6049 H   0  0  0  0  0  0  0  0  0  0  0  0
  131.0479  128.6278  157.6631 H   0  0  0  0  0  0  0  0  0  0  0  0
  131.4403  128.9567  160.0686 H   0  0  0  0  0  0  0  0  0  0  0  0
  131.7921  131.2210  160.9642 H   0  0  0  0  0  0  0  0  0  0  0  0
  129.3913  132.5561  159.4644 H   0  0  0  0  0  0  0  0  0  0  0  0
  124.8676  134.0552  160.5991 H   0  0  0  0  0  0  0  0  0  0  0  0
  126.5050  131.9294  158.4673 H   0  0  0  0  0  0  0  0  0  0  0  0
  125.4043  131.4187  161.3593 H   0  0  0  0  0  0  0  0  0  0  0  0
  125.1115  130.3520  159.8836 H   0  0  0  0  0  0  0  0  0  0  0  0
  127.6104  129.9805  159.6563 H   0  0  0  0  0  0  0  0  0  0  0  0
  127.9033  131.0472  161.1321 H   0  0  0  0  0  0  0  0  0  0  0  0
  131.3629  132.8604  157.0522 H   0  0  0  0  0  0  0  0  0  0  0  0
  130.1665  128.0826  152.4882 H   0  0  0  0  0  0  0  0  0  0  0  0
  131.1446  129.3083  151.6460 H   0  0  0  0  0  0  0  0  0  0  0  0
  131.9326  128.1161  152.7073 H   0  0  0  0  0  0  0  0  0  0  0  0
  1  2  1  0
  1 33  1  0
  1 34  1  0
  1 35  1  0
  2 31  2  0
  2  3  1  0
  3  4  2  0
  4  5  1  0
  4 29  1  0
  5 28  1  0
  5  6  2  0
  6  7  1  0
  6 36  1  0
  7  8  2  0
  7 37  1  0
  8  9  1  0
  8 38  1  0
  9 10  1  0
  9 28  2  0
 10 11  1  1
 10 12  1  0
 10 16  1  0
 12 13  1  0
 12 14  1  0
 12 15  1  0
 16 17  2  0
 16 18  1  0
 18 19  1  0
 18 39  1  0
 19 24  1  0
 19 20  2  0
 20 21  1  0
 21 22  1  0
 21 23  1  0
 23 24  2  0
 23 40  1  0
 24 25  1  0
 25 27  1  0
 25 26  1  0
 25 41  1  0
 26 27  1  0
 26 42  1  0
 26 43  1  0
 27 44  1  0
 27 45  1  0
 28 46  1  0
 29 30  1  0
 29 31  1  0
 31 32  1  0
 32 47  1  0
 32 48  1  0
 32 49  1  0
M  CHG  1  12   1
M  END
>  <DOCK_score>  (1) 
-42.467125

>  <SMILES>  (1) 
Cc1nc(-c2cccc([C@@H]([NH3+])C(=O)Nc3n[nH]cc3C3CC3)c2)[nH]c1C

$$$$
