Cc1cccc([C@H](C=CC2CC=CC2)Nc2[nH]cc(-c3ccc(N)cc3)[nH+]2)c1
     RDKit          3D

 55 58  0  0  1  0  0  0  0  0999 V2000
  125.7092  132.8355  161.7272 C   0  0  0  0  0  0  0  0  0  0  0  0
  126.3171  133.9040  160.8558 C   0  0  0  0  0  0  0  0  0  0  0  0
  125.5089  134.6718  160.0373 C   0  0  0  0  0  0  0  0  0  0  0  0
  126.0665  135.6519  159.2387 C   0  0  0  0  0  0  0  0  0  0  0  0
  127.4318  135.8686  159.2616 C   0  0  0  0  0  0  0  0  0  0  0  0
  128.2403  135.0978  160.0755 C   0  0  0  0  0  0  0  0  0  0  0  0
  129.7291  135.3304  160.0964 C   0  0  2  0  0  0  0  0  0  0  0  0
  130.1961  134.6331  160.7920 H   0  0  0  0  0  0  0  0  0  0  0  0
  130.0106  136.7438  160.5370 C   0  0  0  0  0  0  0  0  0  0  0  0
  131.1169  137.0210  161.1815 C   0  0  0  0  0  0  0  0  0  0  0  0
  131.3984  138.4344  161.6222 C   0  0  0  0  0  0  0  0  0  0  0  0
  132.7972  138.8947  161.1505 C   0  0  0  0  0  0  0  0  0  0  0  0
  133.3272  139.7384  162.2864 C   0  0  0  0  0  0  0  0  0  0  0  0
  132.6476  139.5322  163.3817 C   0  0  0  0  0  0  0  0  0  0  0  0
  131.5513  138.5167  163.1587 C   0  0  0  0  0  0  0  0  0  0  0  0
  130.2753  135.1198  158.7534 N   0  0  0  0  0  0  0  0  0  0  0  0
  130.1378  133.8885  158.1356 C   0  0  0  0  0  0  0  0  0  0  0  0
  129.5204  132.7991  158.6681 N   0  0  0  0  0  0  0  0  0  0  0  0
  129.1003  132.7459  159.5408 H   0  0  0  0  0  0  0  0  0  0  0  0
  129.6015  131.7877  157.7404 C   0  0  0  0  0  0  0  0  0  0  0  0
  130.2657  132.2887  156.6696 C   0  0  0  0  0  0  0  0  0  0  0  0
  130.5896  131.5549  155.4216 C   0  0  0  0  0  0  0  0  0  0  0  0
  130.1003  132.0089  154.1979 C   0  0  0  0  0  0  0  0  0  0  0  0
  130.4075  131.3286  153.0385 C   0  0  0  0  0  0  0  0  0  0  0  0
  131.1944  130.1844  153.0907 C   0  0  0  0  0  0  0  0  0  0  0  0
  131.4993  129.4937  151.9153 N   0  0  0  0  0  0  0  0  0  0  0  0
  131.6790  129.7266  154.3105 C   0  0  0  0  0  0  0  0  0  0  0  0
  131.3790  130.4069  155.4717 C   0  0  0  0  0  0  0  0  0  0  0  0
  130.5818  133.5796  156.9415 N   0  0  0  0  0  0  0  0  0  0  0  0
  131.0598  134.1787  156.3471 H   0  0  0  0  0  0  0  0  0  0  0  0
  127.6826  134.1171  160.8747 C   0  0  0  0  0  0  0  0  0  0  0  0
  125.4452  133.2624  162.6949 H   0  0  0  0  0  0  0  0  0  0  0  0
  124.8132  132.4416  161.2475 H   0  0  0  0  0  0  0  0  0  0  0  0
  126.4292  132.0296  161.8698 H   0  0  0  0  0  0  0  0  0  0  0  0
  124.4418  134.5056  160.0225 H   0  0  0  0  0  0  0  0  0  0  0  0
  125.4351  136.2518  158.6000 H   0  0  0  0  0  0  0  0  0  0  0  0
  127.8670  136.6376  158.6405 H   0  0  0  0  0  0  0  0  0  0  0  0
  129.3001  137.5282  160.3216 H   0  0  0  0  0  0  0  0  0  0  0  0
  131.8274  136.2367  161.3969 H   0  0  0  0  0  0  0  0  0  0  0  0
  130.6225  139.1138  161.2691 H   0  0  0  0  0  0  0  0  0  0  0  0
  133.4440  138.0335  160.9833 H   0  0  0  0  0  0  0  0  0  0  0  0
  132.7143  139.4907  160.2415 H   0  0  0  0  0  0  0  0  0  0  0  0
  134.1588  140.4224  162.2032 H   0  0  0  0  0  0  0  0  0  0  0  0
  132.8433  140.0233  164.3236 H   0  0  0  0  0  0  0  0  0  0  0  0
  130.6212  138.8556  163.6152 H   0  0  0  0  0  0  0  0  0  0  0  0
  131.8429  137.5477  163.5637 H   0  0  0  0  0  0  0  0  0  0  0  0
  130.7330  135.8430  158.2971 H   0  0  0  0  0  0  0  0  0  0  0  0
  129.2147  130.7849  157.8461 H   0  0  0  0  0  0  0  0  0  0  0  0
  129.4850  132.8955  154.1573 H   0  0  0  0  0  0  0  0  0  0  0  0
  130.0321  131.6823  152.0896 H   0  0  0  0  0  0  0  0  0  0  0  0
  132.0486  128.6943  151.9514 H   0  0  0  0  0  0  0  0  0  0  0  0
  131.1613  129.8116  151.0641 H   0  0  0  0  0  0  0  0  0  0  0  0
  132.2904  128.8373  154.3488 H   0  0  0  0  0  0  0  0  0  0  0  0
  131.7557  130.0511  156.4193 H   0  0  0  0  0  0  0  0  0  0  0  0
  128.3139  133.5178  161.5140 H   0  0  0  0  0  0  0  0  0  0  0  0
  1  2  1  0
  1 32  1  0
  1 33  1  0
  1 34  1  0
  2 31  2  0
  2  3  1  0
  3  4  2  0
  3 35  1  0
  4  5  1  0
  4 36  1  0
  5  6  2  0
  5 37  1  0
  6  7  1  0
  6 31  1  0
  7  8  1  1
  7  9  1  0
  7 16  1  0
  9 10  2  0
  9 38  1  0
 10 11  1  0
 10 39  1  0
 11 15  1  0
 11 12  1  0
 11 40  1  0
 12 13  1  0
 12 41  1  0
 12 42  1  0
 13 14  2  0
 13 43  1  0
 14 15  1  0
 14 44  1  0
 15 45  1  0
 15 46  1  0
 16 47  1  0
 17 16  1  0
 17 29  2  0
 17 18  1  0
 18 19  1  0
 18 20  1  0
 20 21  2  0
 20 48  1  0
 21 22  1  0
 21 29  1  0
 22 28  1  0
 22 23  2  0
 23 24  1  0
 23 49  1  0
 24 25  2  0
 24 50  1  0
 25 26  1  0
 25 27  1  0
 26 51  1  0
 26 52  1  0
 27 28  2  0
 27 53  1  0
 28 54  1  0
 29 30  1  0
 31 55  1  0
M  CHG  1  29   1
M  END
>  <DOCK_score>  (1) 
-57.15321

>  <SMILES>  (1) 
Cc1cccc([C@H](C=CC2CC=CC2)Nc2[nH]cc(-c3ccc(N)cc3)[nH+]2)c1

$$$$
