CC(C)NC(N[C@H]1CCC(=O)NC1)=[NH+][C@H]1COc2ccccc2C1
     RDKit          3D

 51 53  0  0  1  0  0  0  0  0999 V2000
  130.3944  131.1577  158.1860 C   0  0  0  0  0  0  0  0  0  0  0  0
  129.9620  132.2703  157.2289 C   0  0  0  0  0  0  0  0  0  0  0  0
  129.0644  131.6838  156.1374 C   0  0  0  0  0  0  0  0  0  0  0  0
  129.2224  133.2935  157.9719 N   0  0  0  0  0  0  0  0  0  0  0  0
  129.8286  133.9637  159.0079 C   0  0  0  0  0  0  0  0  0  0  0  0
  129.0762  134.4249  160.0622 N   0  0  0  0  0  0  0  0  0  0  0  0
  127.6283  134.2021  160.0815 C   0  0  1  0  0  0  0  0  0  0  0  0
  127.2498  134.1690  159.0598 H   0  0  0  0  0  0  0  0  0  0  0  0
  127.3213  132.8758  160.7872 C   0  0  0  0  0  0  0  0  0  0  0  0
  125.8273  132.5801  160.6328 C   0  0  0  0  0  0  0  0  0  0  0  0
  125.0252  133.7945  161.0031 C   0  0  0  0  0  0  0  0  0  0  0  0
  123.8468  133.6502  161.2512 O   0  0  0  0  0  0  0  0  0  0  0  0
  125.5393  135.0229  161.0743 N   0  0  0  0  0  0  0  0  0  0  0  0
  126.9447  135.3369  160.8454 C   0  0  0  0  0  0  0  0  0  0  0  0
  131.1168  134.1619  158.9907 N   0  0  0  0  0  0  0  0  0  0  0  0
  131.5820  134.2540  158.1447 H   0  0  0  0  0  0  0  0  0  0  0  0
  131.8610  134.2517  160.2495 C   0  0  1  0  0  0  0  0  0  0  0  0
  131.3719  133.6427  161.0097 H   0  0  0  0  0  0  0  0  0  0  0  0
  133.2978  133.7581  160.0369 C   0  0  0  0  0  0  0  0  0  0  0  0
  133.9662  133.7610  161.2991 O   0  0  0  0  0  0  0  0  0  0  0  0
  133.8822  134.8832  162.0600 C   0  0  0  0  0  0  0  0  0  0  0  0
  134.7927  135.0505  163.0988 C   0  0  0  0  0  0  0  0  0  0  0  0
  134.7338  136.1723  163.8997 C   0  0  0  0  0  0  0  0  0  0  0  0
  133.7679  137.1349  163.6700 C   0  0  0  0  0  0  0  0  0  0  0  0
  132.8640  136.9731  162.6385 C   0  0  0  0  0  0  0  0  0  0  0  0
  132.9184  135.8491  161.8310 C   0  0  0  0  0  0  0  0  0  0  0  0
  131.9162  135.7095  160.7133 C   0  0  0  0  0  0  0  0  0  0  0  0
  129.5128  130.7086  158.6431 H   0  0  0  0  0  0  0  0  0  0  0  0
  130.9449  130.3964  157.6331 H   0  0  0  0  0  0  0  0  0  0  0  0
  131.0339  131.5756  158.9635 H   0  0  0  0  0  0  0  0  0  0  0  0
  130.8436  132.7195  156.7718 H   0  0  0  0  0  0  0  0  0  0  0  0
  128.1424  131.3135  156.5854 H   0  0  0  0  0  0  0  0  0  0  0  0
  128.8284  132.4572  155.4066 H   0  0  0  0  0  0  0  0  0  0  0  0
  129.5833  130.8628  155.6427 H   0  0  0  0  0  0  0  0  0  0  0  0
  128.3048  133.4981  157.7329 H   0  0  0  0  0  0  0  0  0  0  0  0
  129.5040  134.8978  160.7932 H   0  0  0  0  0  0  0  0  0  0  0  0
  127.9030  132.0745  160.3318 H   0  0  0  0  0  0  0  0  0  0  0  0
  127.5719  132.9563  161.8450 H   0  0  0  0  0  0  0  0  0  0  0  0
  125.6170  132.3089  159.5983 H   0  0  0  0  0  0  0  0  0  0  0  0
  125.5525  131.7528  161.2871 H   0  0  0  0  0  0  0  0  0  0  0  0
  124.9401  135.7547  161.2895 H   0  0  0  0  0  0  0  0  0  0  0  0
  127.4417  135.4754  161.8056 H   0  0  0  0  0  0  0  0  0  0  0  0
  127.0216  136.2578  160.2673 H   0  0  0  0  0  0  0  0  0  0  0  0
  133.2823  132.7465  159.6314 H   0  0  0  0  0  0  0  0  0  0  0  0
  133.8161  134.4232  159.3463 H   0  0  0  0  0  0  0  0  0  0  0  0
  135.5474  134.2993  163.2793 H   0  0  0  0  0  0  0  0  0  0  0  0
  135.4421  136.2990  164.7053 H   0  0  0  0  0  0  0  0  0  0  0  0
  133.7202  138.0128  164.2974 H   0  0  0  0  0  0  0  0  0  0  0  0
  132.1107  137.7264  162.4610 H   0  0  0  0  0  0  0  0  0  0  0  0
  132.2129  136.3446  159.8787 H   0  0  0  0  0  0  0  0  0  0  0  0
  130.9321  136.0144  161.0692 H   0  0  0  0  0  0  0  0  0  0  0  0
  1  2  1  0
  1 28  1  0
  1 29  1  0
  1 30  1  0
  2  3  1  0
  2  4  1  0
  2 31  1  0
  3 32  1  0
  3 33  1  0
  3 34  1  0
  4 35  1  0
  5  4  1  0
  5  6  1  0
  5 15  2  0
  6  7  1  0
  6 36  1  0
  7  8  1  6
  7 14  1  0
  7  9  1  0
  9 10  1  0
  9 37  1  0
  9 38  1  0
 10 11  1  0
 10 39  1  0
 10 40  1  0
 11 12  2  0
 11 13  1  0
 13 14  1  0
 13 41  1  0
 14 42  1  0
 14 43  1  0
 15 16  1  0
 15 17  1  0
 17 18  1  1
 17 27  1  0
 17 19  1  0
 19 20  1  0
 19 44  1  0
 19 45  1  0
 20 21  1  0
 21 26  2  0
 21 22  1  0
 22 23  2  0
 22 46  1  0
 23 24  1  0
 23 47  1  0
 24 25  2  0
 24 48  1  0
 25 26  1  0
 25 49  1  0
 26 27  1  0
 27 50  1  0
 27 51  1  0
M  CHG  1  15   1
M  END
>  <DOCK_score>  (1) 
-42.714573

>  <SMILES>  (1) 
CC(C)NC(N[C@H]1CCC(=O)NC1)=[NH+][C@H]1COc2ccccc2C1

$$$$
