Brc1ccc(-c2c[nH]c(N[C@@H](c3ccccc3)c3cccc4cnccc34)[nH+]2)cc1
     RDKit          3D

 50 54  0  0  1  0  0  0  0  0999 V2000
  130.6681  129.2173  150.4623 Br  0  0  0  0  0  0  0  0  0  0  0  0
  130.6325  130.0082  152.1798 C   0  0  0  0  0  0  0  0  0  0  0  0
  129.9111  131.1717  152.3878 C   0  0  0  0  0  0  0  0  0  0  0  0
  129.8820  131.7535  153.6387 C   0  0  0  0  0  0  0  0  0  0  0  0
  130.5799  131.1679  154.6935 C   0  0  0  0  0  0  0  0  0  0  0  0
  130.5525  131.7892  156.0401 C   0  0  0  0  0  0  0  0  0  0  0  0
  130.0898  131.2115  157.1763 C   0  0  0  0  0  0  0  0  0  0  0  0
  130.2502  132.1305  158.1848 N   0  0  0  0  0  0  0  0  0  0  0  0
  130.0113  132.0084  159.1169 H   0  0  0  0  0  0  0  0  0  0  0  0
  130.8069  133.2440  157.6347 C   0  0  0  0  0  0  0  0  0  0  0  0
  131.1299  134.4049  158.3163 N   0  0  0  0  0  0  0  0  0  0  0  0
  130.8745  134.5045  159.7554 C   0  0  1  0  0  0  0  0  0  0  0  0
  131.1226  133.5576  160.2348 H   0  0  0  0  0  0  0  0  0  0  0  0
  131.7244  135.6022  160.3416 C   0  0  0  0  0  0  0  0  0  0  0  0
  132.9869  135.3150  160.8256 C   0  0  0  0  0  0  0  0  0  0  0  0
  133.7681  136.3228  161.3598 C   0  0  0  0  0  0  0  0  0  0  0  0
  133.2832  137.6160  161.4179 C   0  0  0  0  0  0  0  0  0  0  0  0
  132.0188  137.9023  160.9384 C   0  0  0  0  0  0  0  0  0  0  0  0
  131.2391  136.8953  160.4006 C   0  0  0  0  0  0  0  0  0  0  0  0
  129.4188  134.8184  159.9868 C   0  0  0  0  0  0  0  0  0  0  0  0
  128.5713  134.9632  158.9298 C   0  0  0  0  0  0  0  0  0  0  0  0
  127.2226  135.2531  159.1254 C   0  0  0  0  0  0  0  0  0  0  0  0
  126.7093  135.3999  160.3785 C   0  0  0  0  0  0  0  0  0  0  0  0
  127.5519  135.2584  161.4917 C   0  0  0  0  0  0  0  0  0  0  0  0
  127.0818  135.4052  162.8069 C   0  0  0  0  0  0  0  0  0  0  0  0
  127.9071  135.2580  163.8166 N   0  0  0  0  0  0  0  0  0  0  0  0
  129.1944  134.9823  163.6574 C   0  0  0  0  0  0  0  0  0  0  0  0
  129.7494  134.8263  162.4237 C   0  0  0  0  0  0  0  0  0  0  0  0
  128.9259  134.9632  161.2911 C   0  0  0  0  0  0  0  0  0  0  0  0
  130.9815  133.0381  156.3522 N   0  0  0  0  0  0  0  0  0  0  0  0
  131.3589  133.6759  155.7263 H   0  0  0  0  0  0  0  0  0  0  0  0
  131.3084  129.9995  154.4771 C   0  0  0  0  0  0  0  0  0  0  0  0
  131.3267  129.4228  153.2235 C   0  0  0  0  0  0  0  0  0  0  0  0
  129.3706  131.6248  151.5699 H   0  0  0  0  0  0  0  0  0  0  0  0
  129.3190  132.6610  153.8003 H   0  0  0  0  0  0  0  0  0  0  0  0
  129.6741  130.2192  157.2702 H   0  0  0  0  0  0  0  0  0  0  0  0
  131.5253  135.1523  157.8410 H   0  0  0  0  0  0  0  0  0  0  0  0
  133.3643  134.3040  160.7837 H   0  0  0  0  0  0  0  0  0  0  0  0
  134.7558  136.0989  161.7348 H   0  0  0  0  0  0  0  0  0  0  0  0
  133.8923  138.4025  161.8383 H   0  0  0  0  0  0  0  0  0  0  0  0
  131.6400  138.9125  160.9840 H   0  0  0  0  0  0  0  0  0  0  0  0
  130.2511  137.1190  160.0262 H   0  0  0  0  0  0  0  0  0  0  0  0
  128.9509  134.8521  157.9248 H   0  0  0  0  0  0  0  0  0  0  0  0
  126.5731  135.3621  158.2694 H   0  0  0  0  0  0  0  0  0  0  0  0
  125.6617  135.6245  160.5144 H   0  0  0  0  0  0  0  0  0  0  0  0
  126.0410  135.6303  162.9874 H   0  0  0  0  0  0  0  0  0  0  0  0
  129.8206  134.8784  164.5312 H   0  0  0  0  0  0  0  0  0  0  0  0
  130.8002  134.6016  162.3168 H   0  0  0  0  0  0  0  0  0  0  0  0
  131.8543  129.5440  155.2902 H   0  0  0  0  0  0  0  0  0  0  0  0
  131.8878  128.5154  153.0558 H   0  0  0  0  0  0  0  0  0  0  0  0
  1  2  1  0
  2 33  2  0
  2  3  1  0
  3  4  2  0
  3 34  1  0
  4  5  1  0
  4 35  1  0
  5  6  1  0
  5 32  2  0
  6 30  1  0
  6  7  2  0
  7  8  1  0
  7 36  1  0
  8  9  1  0
  8 10  1  0
 10 11  1  0
 10 30  2  0
 11 12  1  0
 11 37  1  0
 12 13  1  1
 12 14  1  0
 12 20  1  0
 14 19  1  0
 14 15  2  0
 15 16  1  0
 15 38  1  0
 16 17  2  0
 16 39  1  0
 17 18  1  0
 17 40  1  0
 18 19  2  0
 18 41  1  0
 19 42  1  0
 20 29  1  0
 20 21  2  0
 21 22  1  0
 21 43  1  0
 22 23  2  0
 22 44  1  0
 23 24  1  0
 23 45  1  0
 24 29  2  0
 24 25  1  0
 25 26  2  0
 25 46  1  0
 26 27  1  0
 27 28  2  0
 27 47  1  0
 28 29  1  0
 28 48  1  0
 30 31  1  0
 32 33  1  0
 32 49  1  0
 33 50  1  0
M  CHG  1  30   1
M  END
>  <DOCK_score>  (1) 
-57.896225

>  <SMILES>  (1) 
Brc1ccc(-c2c[nH]c(N[C@@H](c3ccccc3)c3cccc4cnccc34)[nH+]2)cc1

$$$$
