CC1CCN1c1ccc2c(c1)OC[C@@H](NC(N[C@H]1CCC(=O)NC1)=[NH+]C1CC1)C2
     RDKit          3D

 61 65  0  0  1  0  0  0  0  0999 V2000
  133.2877  139.6948  165.3760 C   0  0  0  0  0  0  0  0  0  0  0  0
  133.9498  140.9594  164.8259 C   0  0  1  0  0  0  0  0  0  0  0  0
  135.2412  141.3433  165.5618 C   0  0  0  0  0  0  0  0  0  0  0  0
  135.9016  140.4259  164.5231 C   0  0  0  0  0  0  0  0  0  0  0  0
  134.7697  140.7181  163.6240 N   0  0  0  0  0  0  0  0  0  0  0  0
  134.3508  139.5656  162.9554 C   0  0  0  0  0  0  0  0  0  0  0  0
  135.2317  138.5061  162.7740 C   0  0  0  0  0  0  0  0  0  0  0  0
  134.8143  137.3703  162.1114 C   0  0  0  0  0  0  0  0  0  0  0  0
  133.5201  137.2775  161.6249 C   0  0  0  0  0  0  0  0  0  0  0  0
  132.6371  138.3285  161.8049 C   0  0  0  0  0  0  0  0  0  0  0  0
  133.0552  139.4751  162.4706 C   0  0  0  0  0  0  0  0  0  0  0  0
  131.3573  138.2740  161.3523 O   0  0  0  0  0  0  0  0  0  0  0  0
  131.0382  137.2878  160.3698 C   0  0  0  0  0  0  0  0  0  0  0  0
  131.5789  135.9348  160.8494 C   0  0  1  0  0  0  0  0  0  0  0  0
  131.1877  135.7133  161.8423 H   0  0  0  0  0  0  0  0  0  0  0  0
  131.1757  134.8821  159.9138 N   0  0  0  0  0  0  0  0  0  0  0  0
  129.9899  134.2122  160.1021 C   0  0  0  0  0  0  0  0  0  0  0  0
  129.1826  134.5303  161.1685 N   0  0  0  0  0  0  0  0  0  0  0  0
  127.7307  134.3660  161.0626 C   0  0  1  0  0  0  0  0  0  0  0  0
  127.4208  134.5107  160.0277 H   0  0  0  0  0  0  0  0  0  0  0  0
  127.3372  132.9579  161.5253 C   0  0  0  0  0  0  0  0  0  0  0  0
  125.8489  132.7511  161.2338 C   0  0  0  0  0  0  0  0  0  0  0  0
  125.0604  133.9226  161.7447 C   0  0  0  0  0  0  0  0  0  0  0  0
  123.8641  133.7888  161.8926 O   0  0  0  0  0  0  0  0  0  0  0  0
  125.6052  135.1023  162.0442 N   0  0  0  0  0  0  0  0  0  0  0  0
  127.0317  135.3918  161.9557 C   0  0  0  0  0  0  0  0  0  0  0  0
  129.6311  133.2757  159.2695 N   0  0  0  0  0  0  0  0  0  0  0  0
  128.7946  132.8032  159.4024 H   0  0  0  0  0  0  0  0  0  0  0  0
  130.4915  132.9369  158.1332 C   0  0  0  0  0  0  0  0  0  0  0  0
  129.9836  133.2879  156.7333 C   0  0  0  0  0  0  0  0  0  0  0  0
  130.0148  131.8286  157.1921 C   0  0  0  0  0  0  0  0  0  0  0  0
  133.1063  136.0195  160.9037 C   0  0  0  0  0  0  0  0  0  0  0  0
  134.0462  138.9296  165.5405 H   0  0  0  0  0  0  0  0  0  0  0  0
  132.7929  139.9247  166.3197 H   0  0  0  0  0  0  0  0  0  0  0  0
  132.5519  139.3289  164.6598 H   0  0  0  0  0  0  0  0  0  0  0  0
  133.2497  141.7876  164.7148 H   0  0  0  0  0  0  0  0  0  0  0  0
  135.5138  142.3942  165.4663 H   0  0  0  0  0  0  0  0  0  0  0  0
  135.2972  140.9755  166.5864 H   0  0  0  0  0  0  0  0  0  0  0  0
  135.9506  139.3823  164.8343 H   0  0  0  0  0  0  0  0  0  0  0  0
  136.8563  140.8022  164.1560 H   0  0  0  0  0  0  0  0  0  0  0  0
  136.2417  138.5720  163.1507 H   0  0  0  0  0  0  0  0  0  0  0  0
  135.5004  136.5481  161.9714 H   0  0  0  0  0  0  0  0  0  0  0  0
  132.3692  140.2975  162.6101 H   0  0  0  0  0  0  0  0  0  0  0  0
  131.5023  137.5528  159.4197 H   0  0  0  0  0  0  0  0  0  0  0  0
  129.9568  137.2285  160.2469 H   0  0  0  0  0  0  0  0  0  0  0  0
  131.7433  134.6605  159.1590 H   0  0  0  0  0  0  0  0  0  0  0  0
  129.5742  134.8635  161.9909 H   0  0  0  0  0  0  0  0  0  0  0  0
  127.9239  132.2162  160.9834 H   0  0  0  0  0  0  0  0  0  0  0  0
  127.5186  132.8593  162.5957 H   0  0  0  0  0  0  0  0  0  0  0  0
  125.7005  132.6562  160.1581 H   0  0  0  0  0  0  0  0  0  0  0  0
  125.5063  131.8413  161.7268 H   0  0  0  0  0  0  0  0  0  0  0  0
  125.0152  135.8144  162.3372 H   0  0  0  0  0  0  0  0  0  0  0  0
  127.4670  135.3559  162.9544 H   0  0  0  0  0  0  0  0  0  0  0  0
  127.1747  136.3889  161.5393 H   0  0  0  0  0  0  0  0  0  0  0  0
  131.5633  133.0163  158.3149 H   0  0  0  0  0  0  0  0  0  0  0  0
  129.0095  133.7711  156.6578 H   0  0  0  0  0  0  0  0  0  0  0  0
  130.7215  133.5988  155.9936 H   0  0  0  0  0  0  0  0  0  0  0  0
  130.7730  131.1795  156.7542 H   0  0  0  0  0  0  0  0  0  0  0  0
  129.0611  131.3518  157.4184 H   0  0  0  0  0  0  0  0  0  0  0  0
  133.4990  135.1517  161.4337 H   0  0  0  0  0  0  0  0  0  0  0  0
  133.5049  136.0360  159.8893 H   0  0  0  0  0  0  0  0  0  0  0  0
  1  2  1  0
  1 33  1  0
  1 34  1  0
  1 35  1  0
  2  5  1  0
  2  3  1  0
  2 36  1  6
  3  4  1  0
  3 37  1  0
  3 38  1  0
  4  5  1  0
  4 39  1  0
  4 40  1  0
  5  6  1  0
  6 11  1  0
  6  7  2  0
  7  8  1  0
  7 41  1  0
  8  9  2  0
  8 42  1  0
  9 32  1  0
  9 10  1  0
 10 11  2  0
 10 12  1  0
 11 43  1  0
 12 13  1  0
 13 14  1  0
 13 44  1  0
 13 45  1  0
 14 15  1  1
 14 16  1  0
 14 32  1  0
 16 46  1  0
 17 16  1  0
 17 18  1  0
 17 27  2  0
 18 19  1  0
 18 47  1  0
 19 20  1  6
 19 26  1  0
 19 21  1  0
 21 22  1  0
 21 48  1  0
 21 49  1  0
 22 23  1  0
 22 50  1  0
 22 51  1  0
 23 24  2  0
 23 25  1  0
 25 26  1  0
 25 52  1  0
 26 53  1  0
 26 54  1  0
 27 28  1  0
 27 29  1  0
 29 31  1  0
 29 30  1  0
 29 55  1  0
 30 31  1  0
 30 56  1  0
 30 57  1  0
 31 58  1  0
 31 59  1  0
 32 60  1  0
 32 61  1  0
M  CHG  1  27   1
M  END
>  <DOCK_score>  (1) 
-42.626724

>  <SMILES>  (1) 
CC1CCN1c1ccc2c(c1)OC[C@@H](NC(N[C@H]1CCC(=O)NC1)=[NH+]C1CC1)C2

$$$$
