CCc1ccc(-c2c[nH]c([C@H](C)Nc3[nH]cc(-c4ccc(N)cc4)[nH+]3)n2)cc1
     RDKit          3D

 53 56  0  0  1  0  0  0  0  0999 V2000
  130.5113  128.4515  151.8239 C   0  0  0  0  0  0  0  0  0  0  0  0
  131.4427  129.5892  152.2470 C   0  0  0  0  0  0  0  0  0  0  0  0
  130.9482  130.1902  153.5374 C   0  0  0  0  0  0  0  0  0  0  0  0
  131.3927  129.6853  154.7468 C   0  0  0  0  0  0  0  0  0  0  0  0
  130.9471  130.2345  155.9320 C   0  0  0  0  0  0  0  0  0  0  0  0
  130.0395  131.2917  155.9092 C   0  0  0  0  0  0  0  0  0  0  0  0
  129.5518  131.8818  157.1801 C   0  0  0  0  0  0  0  0  0  0  0  0
  128.8810  131.2259  158.1629 C   0  0  0  0  0  0  0  0  0  0  0  0
  128.6264  132.1431  159.1439 N   0  0  0  0  0  0  0  0  0  0  0  0
  128.1598  131.9771  159.9779 H   0  0  0  0  0  0  0  0  0  0  0  0
  129.1436  133.3237  158.7383 C   0  0  0  0  0  0  0  0  0  0  0  0
  129.0919  134.6145  159.5142 C   0  0  2  0  0  0  0  0  0  0  0  0
  129.0856  134.3964  160.5823 H   0  0  0  0  0  0  0  0  0  0  0  0
  127.8218  135.3823  159.1430 C   0  0  0  0  0  0  0  0  0  0  0  0
  130.2666  135.4271  159.1887 N   0  0  0  0  0  0  0  0  0  0  0  0
  130.7923  136.2932  160.1324 C   0  0  0  0  0  0  0  0  0  0  0  0
  130.3151  136.4756  161.3935 N   0  0  0  0  0  0  0  0  0  0  0  0
  129.5520  136.0265  161.7898 H   0  0  0  0  0  0  0  0  0  0  0  0
  131.1140  137.4144  162.0022 C   0  0  0  0  0  0  0  0  0  0  0  0
  132.0547  137.7773  161.0957 C   0  0  0  0  0  0  0  0  0  0  0  0
  133.1362  138.7700  161.3096 C   0  0  0  0  0  0  0  0  0  0  0  0
  133.6288  139.5081  160.2346 C   0  0  0  0  0  0  0  0  0  0  0  0
  134.6305  140.4341  160.4369 C   0  0  0  0  0  0  0  0  0  0  0  0
  135.1568  140.6237  161.7086 C   0  0  0  0  0  0  0  0  0  0  0  0
  136.1754  141.5582  161.9098 N   0  0  0  0  0  0  0  0  0  0  0  0
  134.6708  139.8848  162.7815 C   0  0  0  0  0  0  0  0  0  0  0  0
  133.6653  138.9620  162.5850 C   0  0  0  0  0  0  0  0  0  0  0  0
  131.8351  137.0685  159.9601 N   0  0  0  0  0  0  0  0  0  0  0  0
  132.3640  137.1276  159.1491 H   0  0  0  0  0  0  0  0  0  0  0  0
  129.6997  133.1643  157.5702 N   0  0  0  0  0  0  0  0  0  0  0  0
  129.5912  131.7921  154.6884 C   0  0  0  0  0  0  0  0  0  0  0  0
  130.0478  131.2391  153.5093 C   0  0  0  0  0  0  0  0  0  0  0  0
  129.5034  128.8411  151.6810 H   0  0  0  0  0  0  0  0  0  0  0  0
  130.4982  127.6855  152.5993 H   0  0  0  0  0  0  0  0  0  0  0  0
  130.8688  128.0173  150.8902 H   0  0  0  0  0  0  0  0  0  0  0  0
  132.4506  129.1996  152.3898 H   0  0  0  0  0  0  0  0  0  0  0  0
  131.4560  130.3553  151.4716 H   0  0  0  0  0  0  0  0  0  0  0  0
  132.0925  128.8629  154.7633 H   0  0  0  0  0  0  0  0  0  0  0  0
  131.2981  129.8430  156.8753 H   0  0  0  0  0  0  0  0  0  0  0  0
  128.6031  130.1824  158.1681 H   0  0  0  0  0  0  0  0  0  0  0  0
  126.9478  134.7776  159.3851 H   0  0  0  0  0  0  0  0  0  0  0  0
  127.7845  136.3160  159.7042 H   0  0  0  0  0  0  0  0  0  0  0  0
  127.8282  135.6004  158.0750 H   0  0  0  0  0  0  0  0  0  0  0  0
  130.6761  135.3585  158.3121 H   0  0  0  0  0  0  0  0  0  0  0  0
  131.0119  137.7906  163.0094 H   0  0  0  0  0  0  0  0  0  0  0  0
  133.2235  139.3580  159.2450 H   0  0  0  0  0  0  0  0  0  0  0  0
  135.0094  141.0095  159.6052 H   0  0  0  0  0  0  0  0  0  0  0  0
  136.5431  141.6908  162.7984 H   0  0  0  0  0  0  0  0  0  0  0  0
  136.5152  142.0738  161.1626 H   0  0  0  0  0  0  0  0  0  0  0  0
  135.0812  140.0336  163.7694 H   0  0  0  0  0  0  0  0  0  0  0  0
  133.2877  138.3884  163.4187 H   0  0  0  0  0  0  0  0  0  0  0  0
  128.8880  132.6115  154.6649 H   0  0  0  0  0  0  0  0  0  0  0  0
  129.7011  131.6262  152.5625 H   0  0  0  0  0  0  0  0  0  0  0  0
  1  2  1  0
  1 33  1  0
  1 34  1  0
  1 35  1  0
  2  3  1  0
  2 36  1  0
  2 37  1  0
  3 32  2  0
  3  4  1  0
  4  5  2  0
  4 38  1  0
  5  6  1  0
  5 39  1  0
  6  7  1  0
  6 31  2  0
  7 30  1  0
  7  8  2  0
  8  9  1  0
  8 40  1  0
  9 10  1  0
  9 11  1  0
 11 12  1  0
 11 30  2  0
 12 13  1  1
 12 14  1  0
 12 15  1  0
 14 41  1  0
 14 42  1  0
 14 43  1  0
 15 44  1  0
 16 15  1  0
 16 28  2  0
 16 17  1  0
 17 18  1  0
 17 19  1  0
 19 20  2  0
 19 45  1  0
 20 21  1  0
 20 28  1  0
 21 27  1  0
 21 22  2  0
 22 23  1  0
 22 46  1  0
 23 24  2  0
 23 47  1  0
 24 25  1  0
 24 26  1  0
 25 48  1  0
 25 49  1  0
 26 27  2  0
 26 50  1  0
 27 51  1  0
 28 29  1  0
 31 32  1  0
 31 52  1  0
 32 53  1  0
M  CHG  1  28   1
M  END
>  <DOCK_score>  (1) 
-57.226555

>  <SMILES>  (1) 
CCc1ccc(-c2c[nH]c([C@H](C)Nc3[nH]cc(-c4ccc(N)cc4)[nH+]3)n2)cc1

$$$$
