Nc1ccc(-c2c[nH]c(N[C@@H](/C=C/C(=O)OCC3CC=CC3)c3ccccc3)[nH+]2)cc1
     RDKit          3D

 58 61  0  0  1  0  0  0  0  0999 V2000
  131.3572  129.0871  151.5213 N   0  0  0  0  0  0  0  0  0  0  0  0
  131.0792  129.8106  152.6834 C   0  0  0  0  0  0  0  0  0  0  0  0
  130.1415  130.8361  152.6548 C   0  0  0  0  0  0  0  0  0  0  0  0
  129.8657  131.5518  153.8007 C   0  0  0  0  0  0  0  0  0  0  0  0
  130.5281  131.2460  154.9886 C   0  0  0  0  0  0  0  0  0  0  0  0
  130.2331  132.0146  156.2228 C   0  0  0  0  0  0  0  0  0  0  0  0
  129.7494  131.5062  157.3829 C   0  0  0  0  0  0  0  0  0  0  0  0
  129.6259  132.5587  158.2586 N   0  0  0  0  0  0  0  0  0  0  0  0
  129.3046  132.5111  159.1726 H   0  0  0  0  0  0  0  0  0  0  0  0
  130.0382  133.6795  157.6064 C   0  0  0  0  0  0  0  0  0  0  0  0
  130.0701  134.9568  158.1393 N   0  0  0  0  0  0  0  0  0  0  0  0
  129.6349  135.1858  159.5193 C   0  0  1  0  0  0  0  0  0  0  0  0
  129.9881  134.3712  160.1517 H   0  0  0  0  0  0  0  0  0  0  0  0
  130.2041  136.4900  160.0157 C   0  0  0  0  0  0  0  0  0  0  0  0
  131.3891  136.5114  160.6212 C   0  0  0  0  0  0  0  0  0  0  0  0
  131.9439  137.7830  161.1052 C   0  0  0  0  0  0  0  0  0  0  0  0
  131.3208  138.8153  160.9525 O   0  0  0  0  0  0  0  0  0  0  0  0
  133.1442  137.8048  161.7184 O   0  0  0  0  0  0  0  0  0  0  0  0
  133.6303  139.0961  162.1704 C   0  0  0  0  0  0  0  0  0  0  0  0
  134.9590  139.4109  161.4801 C   0  0  0  0  0  0  0  0  0  0  0  0
  135.6572  140.6198  162.1454 C   0  0  0  0  0  0  0  0  0  0  0  0
  136.2910  141.3749  161.0003 C   0  0  0  0  0  0  0  0  0  0  0  0
  135.7841  141.0054  159.8557 C   0  0  0  0  0  0  0  0  0  0  0  0
  134.7277  139.9421  160.0464 C   0  0  0  0  0  0  0  0  0  0  0  0
  128.1299  135.2436  159.5684 C   0  0  0  0  0  0  0  0  0  0  0  0
  127.4590  134.8314  160.7046 C   0  0  0  0  0  0  0  0  0  0  0  0
  126.0786  134.8880  160.7511 C   0  0  0  0  0  0  0  0  0  0  0  0
  125.3686  135.3491  159.6583 C   0  0  0  0  0  0  0  0  0  0  0  0
  126.0392  135.7564  158.5200 C   0  0  0  0  0  0  0  0  0  0  0  0
  127.4198  135.7033  158.4751 C   0  0  0  0  0  0  0  0  0  0  0  0
  130.3949  133.3512  156.3885 N   0  0  0  0  0  0  0  0  0  0  0  0
  130.7241  133.9658  155.7141 H   0  0  0  0  0  0  0  0  0  0  0  0
  131.4723  130.2207  155.0137 C   0  0  0  0  0  0  0  0  0  0  0  0
  131.7403  129.5036  153.8668 C   0  0  0  0  0  0  0  0  0  0  0  0
  130.8955  129.3003  150.6952 H   0  0  0  0  0  0  0  0  0  0  0  0
  132.0110  128.3709  151.5405 H   0  0  0  0  0  0  0  0  0  0  0  0
  129.6287  131.0729  151.7343 H   0  0  0  0  0  0  0  0  0  0  0  0
  129.1367  132.3484  153.7781 H   0  0  0  0  0  0  0  0  0  0  0  0
  129.5073  130.4724  157.5809 H   0  0  0  0  0  0  0  0  0  0  0  0
  130.3807  135.7002  157.5991 H   0  0  0  0  0  0  0  0  0  0  0  0
  129.6504  137.4073  159.8799 H   0  0  0  0  0  0  0  0  0  0  0  0
  131.9427  135.5942  160.7570 H   0  0  0  0  0  0  0  0  0  0  0  0
  132.9004  139.8664  161.9217 H   0  0  0  0  0  0  0  0  0  0  0  0
  133.7786  139.0710  163.2500 H   0  0  0  0  0  0  0  0  0  0  0  0
  135.6105  138.5372  161.4733 H   0  0  0  0  0  0  0  0  0  0  0  0
  134.9262  141.2471  162.6554 H   0  0  0  0  0  0  0  0  0  0  0  0
  136.4209  140.2796  162.8448 H   0  0  0  0  0  0  0  0  0  0  0  0
  137.0626  142.1221  161.1141 H   0  0  0  0  0  0  0  0  0  0  0  0
  136.0811  141.4067  158.8980 H   0  0  0  0  0  0  0  0  0  0  0  0
  134.8592  139.1412  159.3189 H   0  0  0  0  0  0  0  0  0  0  0  0
  133.7318  140.3764  159.9586 H   0  0  0  0  0  0  0  0  0  0  0  0
  128.0134  134.4680  161.5571 H   0  0  0  0  0  0  0  0  0  0  0  0
  125.5546  134.5695  161.6401 H   0  0  0  0  0  0  0  0  0  0  0  0
  124.2899  135.3910  159.6935 H   0  0  0  0  0  0  0  0  0  0  0  0
  125.4845  136.1163  157.6661 H   0  0  0  0  0  0  0  0  0  0  0  0
  127.9437  136.0215  157.5859 H   0  0  0  0  0  0  0  0  0  0  0  0
  131.9899  129.9850  155.9317 H   0  0  0  0  0  0  0  0  0  0  0  0
  132.4685  128.7063  153.8867 H   0  0  0  0  0  0  0  0  0  0  0  0
  1  2  1  0
  1 35  1  0
  1 36  1  0
  2 34  2  0
  2  3  1  0
  3  4  2  0
  3 37  1  0
  4  5  1  0
  4 38  1  0
  5  6  1  0
  5 33  2  0
  6 31  1  0
  6  7  2  0
  7  8  1  0
  7 39  1  0
  8  9  1  0
  8 10  1  0
 10 11  1  0
 10 31  2  0
 11 12  1  0
 11 40  1  0
 12 13  1  1
 12 14  1  0
 12 25  1  0
 14 15  2  0
 14 41  1  0
 15 16  1  0
 15 42  1  0
 16 17  2  0
 16 18  1  0
 18 19  1  0
 19 20  1  0
 19 43  1  0
 19 44  1  0
 20 24  1  0
 20 21  1  0
 20 45  1  0
 21 22  1  0
 21 46  1  0
 21 47  1  0
 22 23  2  0
 22 48  1  0
 23 24  1  0
 23 49  1  0
 24 50  1  0
 24 51  1  0
 25 30  1  0
 25 26  2  0
 26 27  1  0
 26 52  1  0
 27 28  2  0
 27 53  1  0
 28 29  1  0
 28 54  1  0
 29 30  2  0
 29 55  1  0
 30 56  1  0
 31 32  1  0
 33 34  1  0
 33 57  1  0
 34 58  1  0
M  CHG  1  31   1
M  END
>  <DOCK_score>  (1) 
-61.686092

>  <SMILES>  (1) 
Nc1ccc(-c2c[nH]c(N[C@@H](/C=C/C(=O)OCC3CC=CC3)c3ccccc3)[nH+]2)cc1

$$$$
