CCSc1ccc([C@H](Nc2[nH]cc(-c3ccc(N)cc3)[nH+]2)c2ccc(Cl)cc2)cc1
     RDKit          3D

 54 57  0  0  1  0  0  0  0  0999 V2000
  129.0133  140.9151  163.3814 C   0  0  0  0  0  0  0  0  0  0  0  0
  130.4646  141.2188  163.7590 C   0  0  0  0  0  0  0  0  0  0  0  0
  131.5162  141.0679  162.2886 S   0  0  0  0  0  0  0  0  0  0  0  0
  131.2798  139.3908  161.8028 C   0  0  0  0  0  0  0  0  0  0  0  0
  130.7628  139.0959  160.5467 C   0  0  0  0  0  0  0  0  0  0  0  0
  130.5791  137.7804  160.1691 C   0  0  0  0  0  0  0  0  0  0  0  0
  130.9095  136.7570  161.0387 C   0  0  0  0  0  0  0  0  0  0  0  0
  130.7076  135.3227  160.6229 C   0  0  2  0  0  0  0  0  0  0  0  0
  131.4488  134.6937  161.1162 H   0  0  0  0  0  0  0  0  0  0  0  0
  130.8601  135.2093  159.1703 N   0  0  0  0  0  0  0  0  0  0  0  0
  130.7177  133.9782  158.5533 C   0  0  0  0  0  0  0  0  0  0  0  0
  130.4344  132.8048  159.1816 N   0  0  0  0  0  0  0  0  0  0  0  0
  130.2971  132.6814  160.1339 H   0  0  0  0  0  0  0  0  0  0  0  0
  130.3838  131.8257  158.2179 C   0  0  0  0  0  0  0  0  0  0  0  0
  130.6326  132.4302  157.0299 C   0  0  0  0  0  0  0  0  0  0  0  0
  130.6795  131.7647  155.7048 C   0  0  0  0  0  0  0  0  0  0  0  0
  130.3189  132.4688  154.5570 C   0  0  0  0  0  0  0  0  0  0  0  0
  130.3693  131.8501  153.3256 C   0  0  0  0  0  0  0  0  0  0  0  0
  130.7673  130.5218  153.2300 C   0  0  0  0  0  0  0  0  0  0  0  0
  130.8115  129.8952  151.9821 N   0  0  0  0  0  0  0  0  0  0  0  0
  131.1217  129.8164  154.3736 C   0  0  0  0  0  0  0  0  0  0  0  0
  131.0788  130.4327  155.6063 C   0  0  0  0  0  0  0  0  0  0  0  0
  130.8305  133.7510  157.2673 N   0  0  0  0  0  0  0  0  0  0  0  0
  131.0282  134.4200  156.5933 H   0  0  0  0  0  0  0  0  0  0  0  0
  129.3246  134.8745  161.0194 C   0  0  0  0  0  0  0  0  0  0  0  0
  129.1137  134.2975  162.2577 C   0  0  0  0  0  0  0  0  0  0  0  0
  127.8444  133.8914  162.6241 C   0  0  0  0  0  0  0  0  0  0  0  0
  126.7868  134.0521  161.7468 C   0  0  0  0  0  0  0  0  0  0  0  0
  125.1936  133.5353  162.2033 Cl  0  0  0  0  0  0  0  0  0  0  0  0
  126.9995  134.6245  160.5053 C   0  0  0  0  0  0  0  0  0  0  0  0
  128.2683  135.0354  160.1422 C   0  0  0  0  0  0  0  0  0  0  0  0
  131.4192  137.0469  162.2915 C   0  0  0  0  0  0  0  0  0  0  0  0
  131.6099  138.3598  162.6741 C   0  0  0  0  0  0  0  0  0  0  0  0
  128.3814  141.0056  164.2650 H   0  0  0  0  0  0  0  0  0  0  0  0
  128.6798  141.6222  162.6222 H   0  0  0  0  0  0  0  0  0  0  0  0
  128.9449  139.9007  162.9884 H   0  0  0  0  0  0  0  0  0  0  0  0
  130.7982  140.5115  164.5183 H   0  0  0  0  0  0  0  0  0  0  0  0
  130.5330  142.2331  164.1521 H   0  0  0  0  0  0  0  0  0  0  0  0
  130.5046  139.8946  159.8670 H   0  0  0  0  0  0  0  0  0  0  0  0
  130.1775  137.5504  159.1933 H   0  0  0  0  0  0  0  0  0  0  0  0
  131.0607  135.9969  158.6407 H   0  0  0  0  0  0  0  0  0  0  0  0
  130.1839  130.7763  158.3765 H   0  0  0  0  0  0  0  0  0  0  0  0
  130.0046  133.4993  154.6315 H   0  0  0  0  0  0  0  0  0  0  0  0
  130.0946  132.3967  152.4355 H   0  0  0  0  0  0  0  0  0  0  0  0
  131.0894  128.9685  151.9143 H   0  0  0  0  0  0  0  0  0  0  0  0
  130.5642  130.3872  151.1833 H   0  0  0  0  0  0  0  0  0  0  0  0
  131.4307  128.7843  154.2968 H   0  0  0  0  0  0  0  0  0  0  0  0
  131.3548  129.8841  156.4947 H   0  0  0  0  0  0  0  0  0  0  0  0
  129.9401  134.1680  162.9409 H   0  0  0  0  0  0  0  0  0  0  0  0
  127.6789  133.4446  163.5933 H   0  0  0  0  0  0  0  0  0  0  0  0
  126.1743  134.7499  159.8199 H   0  0  0  0  0  0  0  0  0  0  0  0
  128.4343  135.4826  159.1733 H   0  0  0  0  0  0  0  0  0  0  0  0
  131.6718  136.2452  162.9696 H   0  0  0  0  0  0  0  0  0  0  0  0
  132.0114  138.5854  163.6509 H   0  0  0  0  0  0  0  0  0  0  0  0
  1  2  1  0
  1 34  1  0
  1 35  1  0
  1 36  1  0
  2  3  1  0
  2 37  1  0
  2 38  1  0
  3  4  1  0
  4 33  2  0
  4  5  1  0
  5  6  2  0
  5 39  1  0
  6  7  1  0
  6 40  1  0
  7  8  1  0
  7 32  2  0
  8  9  1  1
  8 10  1  0
  8 25  1  0
 10 41  1  0
 11 10  1  0
 11 23  2  0
 11 12  1  0
 12 13  1  0
 12 14  1  0
 14 15  2  0
 14 42  1  0
 15 16  1  0
 15 23  1  0
 16 22  1  0
 16 17  2  0
 17 18  1  0
 17 43  1  0
 18 19  2  0
 18 44  1  0
 19 20  1  0
 19 21  1  0
 20 45  1  0
 20 46  1  0
 21 22  2  0
 21 47  1  0
 22 48  1  0
 23 24  1  0
 25 31  1  0
 25 26  2  0
 26 27  1  0
 26 49  1  0
 27 28  2  0
 27 50  1  0
 28 29  1  0
 28 30  1  0
 30 31  2  0
 30 51  1  0
 31 52  1  0
 32 33  1  0
 32 53  1  0
 33 54  1  0
M  CHG  1  23   1
M  END
>  <DOCK_score>  (1) 
-57.538765

>  <SMILES>  (1) 
CCSc1ccc([C@H](Nc2[nH]cc(-c3ccc(N)cc3)[nH+]2)c2ccc(Cl)cc2)cc1

$$$$
