COc1ccc(-c2c[nH]c(NC(c3ccccc3)c3ccccc3)[nH+]2)cc1
     RDKit          3D

 49 52  0  0  1  0  0  0  0  0999 V2000
  131.0986  129.7402  151.3629 C   0  0  0  0  0  0  0  0  0  0  0  0
  131.5507  129.3036  152.6458 O   0  0  0  0  0  0  0  0  0  0  0  0
  131.1593  130.0375  153.7207 C   0  0  0  0  0  0  0  0  0  0  0  0
  131.5640  129.6676  154.9964 C   0  0  0  0  0  0  0  0  0  0  0  0
  131.1687  130.4105  156.0893 C   0  0  0  0  0  0  0  0  0  0  0  0
  130.3622  131.5335  155.9120 C   0  0  0  0  0  0  0  0  0  0  0  0
  129.9350  132.3345  157.0853 C   0  0  0  0  0  0  0  0  0  0  0  0
  129.2059  131.8840  158.1361 C   0  0  0  0  0  0  0  0  0  0  0  0
  129.0427  132.9466  158.9927 N   0  0  0  0  0  0  0  0  0  0  0  0
  128.5669  132.9356  159.8380 H   0  0  0  0  0  0  0  0  0  0  0  0
  129.6697  134.0177  158.4346 C   0  0  0  0  0  0  0  0  0  0  0  0
  129.7367  135.2879  158.9812 N   0  0  0  0  0  0  0  0  0  0  0  0
  128.6511  135.7758  159.8355 C   0  0  0  0  0  0  0  0  0  0  0  0
  128.9659  137.1751  160.2980 C   0  0  0  0  0  0  0  0  0  0  0  0
  128.4930  137.6229  161.5173 C   0  0  0  0  0  0  0  0  0  0  0  0
  128.7858  138.9047  161.9437 C   0  0  0  0  0  0  0  0  0  0  0  0
  129.5428  139.7422  161.1469 C   0  0  0  0  0  0  0  0  0  0  0  0
  130.0112  139.2965  159.9244 C   0  0  0  0  0  0  0  0  0  0  0  0
  129.7229  138.0128  159.5004 C   0  0  0  0  0  0  0  0  0  0  0  0
  127.3620  135.7829  159.0550 C   0  0  0  0  0  0  0  0  0  0  0  0
  126.1588  135.5848  159.7061 C   0  0  0  0  0  0  0  0  0  0  0  0
  124.9758  135.5961  158.9909 C   0  0  0  0  0  0  0  0  0  0  0  0
  124.9971  135.7952  157.6231 C   0  0  0  0  0  0  0  0  0  0  0  0
  126.2008  135.9879  156.9713 C   0  0  0  0  0  0  0  0  0  0  0  0
  127.3832  135.9818  157.6872 C   0  0  0  0  0  0  0  0  0  0  0  0
  130.2045  133.6470  157.2967 N   0  0  0  0  0  0  0  0  0  0  0  0
  130.7120  134.2199  156.7008 H   0  0  0  0  0  0  0  0  0  0  0  0
  129.9533  131.8988  154.6306 C   0  0  0  0  0  0  0  0  0  0  0  0
  130.3562  131.1548  153.5412 C   0  0  0  0  0  0  0  0  0  0  0  0
  131.4606  130.7511  151.1749 H   0  0  0  0  0  0  0  0  0  0  0  0
  131.4815  129.0685  150.5946 H   0  0  0  0  0  0  0  0  0  0  0  0
  130.0088  129.7346  151.3403 H   0  0  0  0  0  0  0  0  0  0  0  0
  132.1888  128.7973  155.1332 H   0  0  0  0  0  0  0  0  0  0  0  0
  131.4843  130.1227  157.0812 H   0  0  0  0  0  0  0  0  0  0  0  0
  128.8291  130.8816  158.2753 H   0  0  0  0  0  0  0  0  0  0  0  0
  130.5003  135.8563  158.7953 H   0  0  0  0  0  0  0  0  0  0  0  0
  128.5481  135.1217  160.7013 H   0  0  0  0  0  0  0  0  0  0  0  0
  127.8979  136.9699  162.1384 H   0  0  0  0  0  0  0  0  0  0  0  0
  128.4193  139.2534  162.8979 H   0  0  0  0  0  0  0  0  0  0  0  0
  129.7676  140.7456  161.4772 H   0  0  0  0  0  0  0  0  0  0  0  0
  130.6022  139.9511  159.3011 H   0  0  0  0  0  0  0  0  0  0  0  0
  130.0887  137.6645  158.5458 H   0  0  0  0  0  0  0  0  0  0  0  0
  126.1425  135.4248  160.7740 H   0  0  0  0  0  0  0  0  0  0  0  0
  124.0355  135.4451  159.5000 H   0  0  0  0  0  0  0  0  0  0  0  0
  124.0733  135.7996  157.0636 H   0  0  0  0  0  0  0  0  0  0  0  0
  126.2174  136.1430  155.9026 H   0  0  0  0  0  0  0  0  0  0  0  0
  128.3237  136.1322  157.1778 H   0  0  0  0  0  0  0  0  0  0  0  0
  129.3247  132.7659  154.4904 H   0  0  0  0  0  0  0  0  0  0  0  0
  130.0427  131.4396  152.5478 H   0  0  0  0  0  0  0  0  0  0  0  0
  1  2  1  0
  1 30  1  0
  1 31  1  0
  1 32  1  0
  2  3  1  0
  3 29  2  0
  3  4  1  0
  4  5  2  0
  4 33  1  0
  5  6  1  0
  5 34  1  0
  6  7  1  0
  6 28  2  0
  7 26  1  0
  7  8  2  0
  8  9  1  0
  8 35  1  0
  9 10  1  0
  9 11  1  0
 11 12  1  0
 11 26  2  0
 12 13  1  0
 12 36  1  0
 13 14  1  0
 13 20  1  0
 13 37  1  0
 14 19  1  0
 14 15  2  0
 15 16  1  0
 15 38  1  0
 16 17  2  0
 16 39  1  0
 17 18  1  0
 17 40  1  0
 18 19  2  0
 18 41  1  0
 19 42  1  0
 20 25  1  0
 20 21  2  0
 21 22  1  0
 21 43  1  0
 22 23  2  0
 22 44  1  0
 23 24  1  0
 23 45  1  0
 24 25  2  0
 24 46  1  0
 25 47  1  0
 26 27  1  0
 28 29  1  0
 28 48  1  0
 29 49  1  0
M  CHG  1  26   1
M  END
>  <DOCK_score>  (1) 
-56.244949

>  <SMILES>  (1) 
COc1ccc(-c2c[nH]c(NC(c3ccccc3)c3ccccc3)[nH+]2)cc1

$$$$
