Oc1ccc2c(c1)C([N@H+]1CCCC1CC=CCBr)c1cc(O)ccc1-2
     RDKit          3D

 48 51  0  0  1  0  0  0  0  0999 V2000
  131.7013  131.0528  155.3683 O   0  0  0  0  0  0  0  0  0  0  0  0
  130.7263  131.3791  156.2568 C   0  0  0  0  0  0  0  0  0  0  0  0
  130.1514  130.3951  157.0495 C   0  0  0  0  0  0  0  0  0  0  0  0
  129.1624  130.7217  157.9522 C   0  0  0  0  0  0  0  0  0  0  0  0
  128.7352  132.0460  158.0722 C   0  0  0  0  0  0  0  0  0  0  0  0
  129.3164  133.0279  157.2737 C   0  0  0  0  0  0  0  0  0  0  0  0
  130.3049  132.6973  156.3724 C   0  0  0  0  0  0  0  0  0  0  0  0
  128.6617  134.3426  157.6205 C   0  0  0  0  0  0  0  0  0  0  0  0
  129.6641  135.2880  158.1298 N   0  0  1  0  0  0  0  0  0  0  0  0
  130.5188  135.2102  157.5993 H   0  0  0  0  0  0  0  0  0  0  0  0
  129.1438  136.6707  158.0585 C   0  0  0  0  0  0  0  0  0  0  0  0
  129.6856  137.4213  159.2890 C   0  0  0  0  0  0  0  0  0  0  0  0
  130.5120  136.3735  160.0695 C   0  0  0  0  0  0  0  0  0  0  0  0
  129.9286  135.0286  159.5682 C   0  0  2  0  0  0  0  0  0  0  0  0
  130.9497  133.9015  159.7348 C   0  0  0  0  0  0  0  0  0  0  0  0
  131.5635  133.9789  161.1091 C   0  0  0  0  0  0  0  0  0  0  0  0
  132.6453  134.6914  161.3040 C   0  0  0  0  0  0  0  0  0  0  0  0
  133.1943  134.8618  162.6972 C   0  0  0  0  0  0  0  0  0  0  0  0
  131.8434  135.7288  163.8324 Br  0  0  0  0  0  0  0  0  0  0  0  0
  127.6471  134.0328  158.6939 C   0  0  0  0  0  0  0  0  0  0  0  0
  126.7616  134.8296  159.3862 C   0  0  0  0  0  0  0  0  0  0  0  0
  125.9236  134.2693  160.3411 C   0  0  0  0  0  0  0  0  0  0  0  0
  125.0498  135.0547  161.0237 O   0  0  0  0  0  0  0  0  0  0  0  0
  125.9785  132.9060  160.5982 C   0  0  0  0  0  0  0  0  0  0  0  0
  126.8635  132.1056  159.9082 C   0  0  0  0  0  0  0  0  0  0  0  0
  127.7078  132.6643  158.9462 C   0  0  0  0  0  0  0  0  0  0  0  0
  132.0400  131.8042  154.8627 H   0  0  0  0  0  0  0  0  0  0  0  0
  130.4800  129.3702  156.9584 H   0  0  0  0  0  0  0  0  0  0  0  0
  128.7179  129.9534  158.5674 H   0  0  0  0  0  0  0  0  0  0  0  0
  130.7515  133.4631  155.7556 H   0  0  0  0  0  0  0  0  0  0  0  0
  128.1662  134.7582  156.7431 H   0  0  0  0  0  0  0  0  0  0  0  0
  128.0541  136.6588  158.0808 H   0  0  0  0  0  0  0  0  0  0  0  0
  129.4911  137.1546  157.1456 H   0  0  0  0  0  0  0  0  0  0  0  0
  128.8618  137.7865  159.9024 H   0  0  0  0  0  0  0  0  0  0  0  0
  130.3221  138.2493  158.9772 H   0  0  0  0  0  0  0  0  0  0  0  0
  131.5699  136.4523  159.8191 H   0  0  0  0  0  0  0  0  0  0  0  0
  130.3595  136.4838  161.1432 H   0  0  0  0  0  0  0  0  0  0  0  0
  129.0030  134.7914  160.0929 H   0  0  0  0  0  0  0  0  0  0  0  0
  130.4521  132.9394  159.6129 H   0  0  0  0  0  0  0  0  0  0  0  0
  131.7307  134.0045  158.9817 H   0  0  0  0  0  0  0  0  0  0  0  0
  131.1113  133.4470  161.9331 H   0  0  0  0  0  0  0  0  0  0  0  0
  133.1438  135.1566  160.4665 H   0  0  0  0  0  0  0  0  0  0  0  0
  133.4442  133.8851  163.1113 H   0  0  0  0  0  0  0  0  0  0  0  0
  134.0905  135.4813  162.6613 H   0  0  0  0  0  0  0  0  0  0  0  0
  126.7194  135.8901  159.1863 H   0  0  0  0  0  0  0  0  0  0  0  0
  125.0842  135.9888  160.7761 H   0  0  0  0  0  0  0  0  0  0  0  0
  125.3265  132.4716  161.3414 H   0  0  0  0  0  0  0  0  0  0  0  0
  126.9031  131.0454  160.1106 H   0  0  0  0  0  0  0  0  0  0  0  0
  1  2  1  0
  1 27  1  0
  2  7  2  0
  2  3  1  0
  3  4  2  0
  3 28  1  0
  4  5  1  0
  4 29  1  0
  5 26  1  0
  5  6  2  0
  6  7  1  0
  6  8  1  0
  7 30  1  0
  8  9  1  0
  8 20  1  0
  8 31  1  0
  9 10  1  6
  9 14  1  0
  9 11  1  0
 11 12  1  0
 11 32  1  0
 11 33  1  0
 12 13  1  0
 12 34  1  0
 12 35  1  0
 13 14  1  0
 13 36  1  0
 13 37  1  0
 14 15  1  0
 14 38  1  1
 15 16  1  0
 15 39  1  0
 15 40  1  0
 16 17  2  0
 16 41  1  0
 17 18  1  0
 17 42  1  0
 18 19  1  0
 18 43  1  0
 18 44  1  0
 20 26  2  0
 20 21  1  0
 21 22  2  0
 21 45  1  0
 22 23  1  0
 22 24  1  0
 23 46  1  0
 24 25  2  0
 24 47  1  0
 25 26  1  0
 25 48  1  0
M  CHG  1   9   1
M  END
>  <DOCK_score>  (1) 
-45.235573

>  <SMILES>  (1) 
Oc1ccc2c(c1)C([N@H+]1CCCC1CC=CCBr)c1cc(O)ccc1-2

$$$$
