Oc1ccc(NCC[NH+]=C(NCCc2cccs2)N[C@H]2C[C@@H](O)C2)cc1
     RDKit          3D

 53 55  0  0  1  0  0  0  0  0999 V2000
  137.9175  139.7755  160.9588 O   0  0  0  0  0  0  0  0  0  0  0  0
  136.6553  139.2896  160.8151 C   0  0  0  0  0  0  0  0  0  0  0  0
  135.9436  138.8692  161.9288 C   0  0  0  0  0  0  0  0  0  0  0  0
  134.6621  138.3752  161.7839 C   0  0  0  0  0  0  0  0  0  0  0  0
  134.0860  138.2998  160.5227 C   0  0  0  0  0  0  0  0  0  0  0  0
  132.7876  137.7995  160.3748 N   0  0  0  0  0  0  0  0  0  0  0  0
  132.0356  137.3548  161.5510 C   0  0  0  0  0  0  0  0  0  0  0  0
  130.6557  136.8573  161.1157 C   0  0  0  0  0  0  0  0  0  0  0  0
  130.8119  135.7376  160.1841 N   0  0  0  0  0  0  0  0  0  0  0  0
  131.6988  135.4297  159.9401 H   0  0  0  0  0  0  0  0  0  0  0  0
  129.7591  135.1549  159.6830 C   0  0  0  0  0  0  0  0  0  0  0  0
  129.9057  134.1041  158.8087 N   0  0  0  0  0  0  0  0  0  0  0  0
  131.2452  133.6393  158.4401 C   0  0  0  0  0  0  0  0  0  0  0  0
  131.1275  132.4686  157.4619 C   0  0  0  0  0  0  0  0  0  0  0  0
  130.3672  131.3430  158.1147 C   0  0  0  0  0  0  0  0  0  0  0  0
  130.9138  130.3607  158.8326 C   0  0  0  0  0  0  0  0  0  0  0  0
  130.0141  129.4393  159.3402 C   0  0  0  0  0  0  0  0  0  0  0  0
  128.7371  129.6733  159.0345 C   0  0  0  0  0  0  0  0  0  0  0  0
  128.6227  131.1283  158.0529 S   0  0  0  0  0  0  0  0  0  0  0  0
  128.5020  135.5911  160.0289 N   0  0  0  0  0  0  0  0  0  0  0  0
  127.3187  134.9362  159.4658 C   0  0  1  0  0  0  0  0  0  0  0  0
  127.4952  134.5254  158.4717 H   0  0  0  0  0  0  0  0  0  0  0  0
  126.6448  133.9464  160.4307 C   0  0  0  0  0  0  0  0  0  0  0  0
  125.2987  134.4816  159.9147 C   0  0  1  0  0  0  0  0  0  0  0  0
  124.9207  133.9461  159.0437 H   0  0  0  0  0  0  0  0  0  0  0  0
  124.3148  134.6394  160.9390 O   0  0  0  0  0  0  0  0  0  0  0  0
  126.0398  135.7846  159.5637 C   0  0  0  0  0  0  0  0  0  0  0  0
  134.8013  138.7160  159.4075 C   0  0  0  0  0  0  0  0  0  0  0  0
  136.0805  139.2151  159.5550 C   0  0  0  0  0  0  0  0  0  0  0  0
  138.2322  139.7887  161.8729 H   0  0  0  0  0  0  0  0  0  0  0  0
  136.3918  138.9279  162.9097 H   0  0  0  0  0  0  0  0  0  0  0  0
  134.1080  138.0479  162.6512 H   0  0  0  0  0  0  0  0  0  0  0  0
  132.3854  137.7470  159.4937 H   0  0  0  0  0  0  0  0  0  0  0  0
  131.9193  138.1880  162.2440 H   0  0  0  0  0  0  0  0  0  0  0  0
  132.5752  136.5456  162.0427 H   0  0  0  0  0  0  0  0  0  0  0  0
  130.1161  137.6666  160.6239 H   0  0  0  0  0  0  0  0  0  0  0  0
  130.0961  136.5266  161.9907 H   0  0  0  0  0  0  0  0  0  0  0  0
  129.1222  133.6705  158.4358 H   0  0  0  0  0  0  0  0  0  0  0  0
  131.7755  133.3132  159.3348 H   0  0  0  0  0  0  0  0  0  0  0  0
  131.7951  134.4532  157.9680 H   0  0  0  0  0  0  0  0  0  0  0  0
  132.1243  132.1227  157.1878 H   0  0  0  0  0  0  0  0  0  0  0  0
  130.5972  132.7945  156.5672 H   0  0  0  0  0  0  0  0  0  0  0  0
  131.9775  130.2898  159.0051 H   0  0  0  0  0  0  0  0  0  0  0  0
  130.3230  128.5945  159.9382 H   0  0  0  0  0  0  0  0  0  0  0  0
  127.9012  129.0631  159.3431 H   0  0  0  0  0  0  0  0  0  0  0  0
  128.3986  136.3325  160.6458 H   0  0  0  0  0  0  0  0  0  0  0  0
  126.8242  132.9009  160.1795 H   0  0  0  0  0  0  0  0  0  0  0  0
  126.8286  134.1677  161.4820 H   0  0  0  0  0  0  0  0  0  0  0  0
  124.5723  135.2531  161.6404 H   0  0  0  0  0  0  0  0  0  0  0  0
  126.0580  136.5094  160.3776 H   0  0  0  0  0  0  0  0  0  0  0  0
  125.7316  136.2210  158.6136 H   0  0  0  0  0  0  0  0  0  0  0  0
  134.3558  138.6533  158.4257 H   0  0  0  0  0  0  0  0  0  0  0  0
  136.6354  139.5431  158.6883 H   0  0  0  0  0  0  0  0  0  0  0  0
  1  2  1  0
  1 30  1  0
  2 29  2  0
  2  3  1  0
  3  4  2  0
  3 31  1  0
  4  5  1  0
  4 32  1  0
  5  6  1  0
  5 28  2  0
  6  7  1  0
  6 33  1  0
  7  8  1  0
  7 34  1  0
  7 35  1  0
  8  9  1  0
  8 36  1  0
  8 37  1  0
  9 10  1  0
 11  9  2  0
 11 12  1  0
 11 20  1  0
 12 13  1  0
 12 38  1  0
 13 14  1  0
 13 39  1  0
 13 40  1  0
 14 15  1  0
 14 41  1  0
 14 42  1  0
 15 19  1  0
 15 16  2  0
 16 17  1  0
 16 43  1  0
 17 18  2  0
 17 44  1  0
 18 19  1  0
 18 45  1  0
 20 21  1  0
 20 46  1  0
 21 22  1  6
 21 27  1  0
 21 23  1  0
 23 24  1  0
 23 47  1  0
 23 48  1  0
 24 25  1  6
 24 26  1  0
 24 27  1  0
 26 49  1  0
 27 50  1  0
 27 51  1  0
 28 29  1  0
 28 52  1  0
 29 53  1  0
M  CHG  1   9   1
M  END
>  <DOCK_score>  (1) 
-42.559055

>  <SMILES>  (1) 
Oc1ccc(NCC[NH+]=C(NCCc2cccs2)N[C@H]2C[C@@H](O)C2)cc1

$$$$
