CC/C=C\CNc1cccc([C@@H]([NH3+])C(=O)Nc2cccc(O)c2)c1
     RDKit          3D

 48 49  0  0  1  0  0  0  0  0999 V2000
  137.9350  135.9753  165.7201 C   0  0  0  0  0  0  0  0  0  0  0  0
  136.8321  135.7330  164.6877 C   0  0  0  0  0  0  0  0  0  0  0  0
  136.6430  136.9741  163.8541 C   0  0  0  0  0  0  0  0  0  0  0  0
  135.7437  136.9927  162.9017 C   0  0  0  0  0  0  0  0  0  0  0  0
  134.7955  135.8329  162.7378 C   0  0  0  0  0  0  0  0  0  0  0  0
  133.8951  136.0934  161.6120 N   0  0  0  0  0  0  0  0  0  0  0  0
  132.9216  135.1540  161.2644 C   0  0  0  0  0  0  0  0  0  0  0  0
  132.8055  133.9723  161.9857 C   0  0  0  0  0  0  0  0  0  0  0  0
  131.8417  133.0460  161.6396 C   0  0  0  0  0  0  0  0  0  0  0  0
  130.9888  133.2961  160.5800 C   0  0  0  0  0  0  0  0  0  0  0  0
  131.1053  134.4686  159.8565 C   0  0  0  0  0  0  0  0  0  0  0  0
  130.1777  134.7341  158.6989 C   0  0  1  0  0  0  0  0  0  0  0  0
  130.0248  135.8083  158.5947 H   0  0  0  0  0  0  0  0  0  0  0  0
  130.7706  134.2020  157.4646 N   0  0  0  0  0  0  0  0  0  0  0  0
  131.6571  134.6533  157.2955 H   0  0  0  0  0  0  0  0  0  0  0  0
  130.9122  133.2077  157.5608 H   0  0  0  0  0  0  0  0  0  0  0  0
  130.1495  134.3798  156.6894 H   0  0  0  0  0  0  0  0  0  0  0  0
  128.8537  134.0601  158.9513 C   0  0  0  0  0  0  0  0  0  0  0  0
  128.4442  133.2194  158.1790 O   0  0  0  0  0  0  0  0  0  0  0  0
  128.1220  134.3957  160.0322 N   0  0  0  0  0  0  0  0  0  0  0  0
  126.8900  133.7741  160.2635 C   0  0  0  0  0  0  0  0  0  0  0  0
  126.6751  132.4724  159.8280 C   0  0  0  0  0  0  0  0  0  0  0  0
  125.4610  131.8567  160.0615 C   0  0  0  0  0  0  0  0  0  0  0  0
  124.4532  132.5372  160.7184 C   0  0  0  0  0  0  0  0  0  0  0  0
  124.6602  133.8395  161.1506 C   0  0  0  0  0  0  0  0  0  0  0  0
  123.6682  134.5076  161.7960 O   0  0  0  0  0  0  0  0  0  0  0  0
  125.8794  134.4587  160.9232 C   0  0  0  0  0  0  0  0  0  0  0  0
  132.0672  135.3995  160.1974 C   0  0  0  0  0  0  0  0  0  0  0  0
  137.6522  136.8068  166.3656 H   0  0  0  0  0  0  0  0  0  0  0  0
  138.0718  135.0775  166.3230 H   0  0  0  0  0  0  0  0  0  0  0  0
  138.8667  136.2139  165.2071 H   0  0  0  0  0  0  0  0  0  0  0  0
  135.9004  135.4942  165.2006 H   0  0  0  0  0  0  0  0  0  0  0  0
  137.1149  134.9014  164.0422 H   0  0  0  0  0  0  0  0  0  0  0  0
  137.2489  137.8482  164.0420 H   0  0  0  0  0  0  0  0  0  0  0  0
  135.6817  137.8393  162.2340 H   0  0  0  0  0  0  0  0  0  0  0  0
  134.2110  135.7097  163.6496 H   0  0  0  0  0  0  0  0  0  0  0  0
  135.3643  134.9230  162.5453 H   0  0  0  0  0  0  0  0  0  0  0  0
  133.9751  136.9182  161.1079 H   0  0  0  0  0  0  0  0  0  0  0  0
  133.4681  133.7785  162.8163 H   0  0  0  0  0  0  0  0  0  0  0  0
  131.7509  132.1272  162.1999 H   0  0  0  0  0  0  0  0  0  0  0  0
  130.2327  132.5721  160.3145 H   0  0  0  0  0  0  0  0  0  0  0  0
  128.4496  135.0681  160.6499 H   0  0  0  0  0  0  0  0  0  0  0  0
  127.4595  131.9400  159.3105 H   0  0  0  0  0  0  0  0  0  0  0  0
  125.2971  130.8434  159.7259 H   0  0  0  0  0  0  0  0  0  0  0  0
  123.5035  132.0546  160.8960 H   0  0  0  0  0  0  0  0  0  0  0  0
  123.9059  135.4074  162.0580 H   0  0  0  0  0  0  0  0  0  0  0  0
  126.0425  135.4722  161.2591 H   0  0  0  0  0  0  0  0  0  0  0  0
  132.1546  136.3173  159.6348 H   0  0  0  0  0  0  0  0  0  0  0  0
  1  2  1  0
  1 29  1  0
  1 30  1  0
  1 31  1  0
  2  3  1  0
  2 32  1  0
  2 33  1  0
  3  4  2  0
  3 34  1  0
  4  5  1  0
  4 35  1  0
  5  6  1  0
  5 36  1  0
  5 37  1  0
  6  7  1  0
  6 38  1  0
  7 28  2  0
  7  8  1  0
  8  9  2  0
  8 39  1  0
  9 10  1  0
  9 40  1  0
 10 11  2  0
 10 41  1  0
 11 12  1  0
 11 28  1  0
 12 13  1  6
 12 14  1  0
 12 18  1  0
 14 15  1  0
 14 16  1  0
 14 17  1  0
 18 19  2  0
 18 20  1  0
 20 21  1  0
 20 42  1  0
 21 27  1  0
 21 22  2  0
 22 23  1  0
 22 43  1  0
 23 24  2  0
 23 44  1  0
 24 25  1  0
 24 45  1  0
 25 26  1  0
 25 27  2  0
 26 46  1  0
 27 47  1  0
 28 48  1  0
M  CHG  1  14   1
M  END
>  <DOCK_score>  (1) 
-44.836857

>  <SMILES>  (1) 
CC/C=C\CNc1cccc([C@@H]([NH3+])C(=O)Nc2cccc(O)c2)c1

$$$$
