C[C@H]1c2ccccc2C[C@H]1[NH+]=C(NC[C@@H]1CC(O)C1(C)C)NC1CCCC1
     RDKit          3D

 63 66  0  0  1  0  0  0  0  0999 V2000
  131.8247  139.0352  159.3147 C   0  0  0  0  0  0  0  0  0  0  0  0
  132.9626  138.2005  159.9059 C   0  0  1  0  0  0  0  0  0  0  0  0
  133.2231  137.3853  159.2307 H   0  0  0  0  0  0  0  0  0  0  0  0
  134.1726  139.0706  160.1702 C   0  0  0  0  0  0  0  0  0  0  0  0
  135.1325  139.5611  159.3006 C   0  0  0  0  0  0  0  0  0  0  0  0
  136.1625  140.3493  159.7753 C   0  0  0  0  0  0  0  0  0  0  0  0
  136.2367  140.6498  161.1227 C   0  0  0  0  0  0  0  0  0  0  0  0
  135.2807  140.1613  161.9914 C   0  0  0  0  0  0  0  0  0  0  0  0
  134.2467  139.3711  161.5173 C   0  0  0  0  0  0  0  0  0  0  0  0
  133.0917  138.7235  162.2504 C   0  0  0  0  0  0  0  0  0  0  0  0
  132.5565  137.6431  161.2867 C   0  0  1  0  0  0  0  0  0  0  0  0
  133.0385  136.6835  161.4742 H   0  0  0  0  0  0  0  0  0  0  0  0
  131.1006  137.5224  161.3964 N   0  0  0  0  0  0  0  0  0  0  0  0
  130.5766  138.2646  161.7361 H   0  0  0  0  0  0  0  0  0  0  0  0
  130.5093  136.4175  161.0377 C   0  0  0  0  0  0  0  0  0  0  0  0
  129.3437  136.0300  161.6549 N   0  0  0  0  0  0  0  0  0  0  0  0
  128.7659  136.8587  162.7158 C   0  0  0  0  0  0  0  0  0  0  0  0
  128.0076  135.9684  163.7025 C   0  0  2  0  0  0  0  0  0  0  0  0
  128.6452  135.2210  164.1745 H   0  0  0  0  0  0  0  0  0  0  0  0
  126.6991  135.3944  163.1340 C   0  0  0  0  0  0  0  0  0  0  0  0
  126.0758  135.6576  164.5149 C   0  0  2  0  0  0  0  0  0  0  0  0
  124.7393  136.1600  164.4535 O   0  0  0  0  0  0  0  0  0  0  0  0
  127.1381  136.7542  164.6984 C   0  0  0  0  0  0  0  0  0  0  0  0
  127.7233  136.8105  166.1110 C   0  0  0  0  0  0  0  0  0  0  0  0
  126.7014  138.1261  164.1811 C   0  0  0  0  0  0  0  0  0  0  0  0
  131.0517  135.6398  160.0422 N   0  0  0  0  0  0  0  0  0  0  0  0
  130.3872  134.3979  159.6389 C   0  0  0  0  0  0  0  0  0  0  0  0
  130.3547  133.4079  160.8215 C   0  0  0  0  0  0  0  0  0  0  0  0
  130.5746  132.0230  160.1636 C   0  0  0  0  0  0  0  0  0  0  0  0
  131.6097  132.3323  159.0537 C   0  0  0  0  0  0  0  0  0  0  0  0
  131.1850  133.7141  158.5149 C   0  0  0  0  0  0  0  0  0  0  0  0
  131.5998  139.8671  159.9822 H   0  0  0  0  0  0  0  0  0  0  0  0
  132.1255  139.4217  158.3410 H   0  0  0  0  0  0  0  0  0  0  0  0
  130.9381  138.4115  159.2001 H   0  0  0  0  0  0  0  0  0  0  0  0
  135.0753  139.3268  158.2479 H   0  0  0  0  0  0  0  0  0  0  0  0
  136.9091  140.7307  159.0944 H   0  0  0  0  0  0  0  0  0  0  0  0
  137.0390  141.2697  161.4949 H   0  0  0  0  0  0  0  0  0  0  0  0
  135.3393  140.3965  163.0438 H   0  0  0  0  0  0  0  0  0  0  0  0
  133.4404  138.2654  163.1760 H   0  0  0  0  0  0  0  0  0  0  0  0
  132.3164  139.4602  162.4607 H   0  0  0  0  0  0  0  0  0  0  0  0
  128.9037  135.2076  161.3879 H   0  0  0  0  0  0  0  0  0  0  0  0
  129.5632  137.3853  163.2403 H   0  0  0  0  0  0  0  0  0  0  0  0
  128.0789  137.5828  162.2778 H   0  0  0  0  0  0  0  0  0  0  0  0
  126.2665  135.9995  162.3372 H   0  0  0  0  0  0  0  0  0  0  0  0
  126.7614  134.3368  162.8775 H   0  0  0  0  0  0  0  0  0  0  0  0
  126.1842  134.8241  165.2091 H   0  0  0  0  0  0  0  0  0  0  0  0
  124.5847  136.7782  163.7261 H   0  0  0  0  0  0  0  0  0  0  0  0
  128.7001  137.2932  166.0807 H   0  0  0  0  0  0  0  0  0  0  0  0
  127.0563  137.3803  166.7580 H   0  0  0  0  0  0  0  0  0  0  0  0
  127.8302  135.7982  166.5007 H   0  0  0  0  0  0  0  0  0  0  0  0
  126.1185  138.0015  163.2684 H   0  0  0  0  0  0  0  0  0  0  0  0
  126.0917  138.6220  164.9364 H   0  0  0  0  0  0  0  0  0  0  0  0
  127.5823  138.7322  163.9697 H   0  0  0  0  0  0  0  0  0  0  0  0
  131.8742  135.9130  159.6068 H   0  0  0  0  0  0  0  0  0  0  0  0
  129.3729  134.6103  159.3009 H   0  0  0  0  0  0  0  0  0  0  0  0
  131.1576  133.6276  161.5252 H   0  0  0  0  0  0  0  0  0  0  0  0
  129.3870  133.4431  161.3221 H   0  0  0  0  0  0  0  0  0  0  0  0
  129.6462  131.6484  159.7325 H   0  0  0  0  0  0  0  0  0  0  0  0
  130.9813  131.3132  160.8840 H   0  0  0  0  0  0  0  0  0  0  0  0
  131.5578  131.5826  158.2640 H   0  0  0  0  0  0  0  0  0  0  0  0
  132.6151  132.3785  159.4718 H   0  0  0  0  0  0  0  0  0  0  0  0
  130.5578  133.5938  157.6317 H   0  0  0  0  0  0  0  0  0  0  0  0
  132.0663  134.3066  158.2688 H   0  0  0  0  0  0  0  0  0  0  0  0
  1  2  1  0
  1 32  1  0
  1 33  1  0
  1 34  1  0
  2  3  1  6
  2 11  1  0
  2  4  1  0
  4  9  2  0
  4  5  1  0
  5  6  2  0
  5 35  1  0
  6  7  1  0
  6 36  1  0
  7  8  2  0
  7 37  1  0
  8  9  1  0
  8 38  1  0
  9 10  1  0
 10 11  1  0
 10 39  1  0
 10 40  1  0
 11 12  1  1
 11 13  1  0
 13 14  1  0
 15 13  2  0
 15 16  1  0
 15 26  1  0
 16 17  1  0
 16 41  1  0
 17 18  1  0
 17 42  1  0
 17 43  1  0
 18 19  1  1
 18 23  1  0
 18 20  1  0
 20 21  1  0
 20 44  1  0
 20 45  1  0
 21 22  1  0
 21 23  1  0
 21 46  1  1
 22 47  1  0
 23 24  1  0
 23 25  1  0
 24 48  1  0
 24 49  1  0
 24 50  1  0
 25 51  1  0
 25 52  1  0
 25 53  1  0
 26 27  1  0
 26 54  1  0
 27 31  1  0
 27 28  1  0
 27 55  1  0
 28 29  1  0
 28 56  1  0
 28 57  1  0
 29 30  1  0
 29 58  1  0
 29 59  1  0
 30 31  1  0
 30 60  1  0
 30 61  1  0
 31 62  1  0
 31 63  1  0
M  CHG  1  13   1
M  END
>  <DOCK_score>  (1) 
-42.172947

>  <SMILES>  (1) 
C[C@H]1c2ccccc2C[C@H]1[NH+]=C(NC[C@@H]1CC(O)C1(C)C)NC1CCCC1

$$$$
