C1=C[C@@H]([NH2+]Cc2c[nH]nc2-c2ccc(NCc3cc[nH]n3)o2)CC1
     RDKit          3D

 45 48  0  0  1  0  0  0  0  0999 V2000
  131.9913  139.4218  159.5130 C   0  0  0  0  0  0  0  0  0  0  0  0
  131.6373  138.5025  160.3735 C   0  0  0  0  0  0  0  0  0  0  0  0
  132.7497  137.5015  160.5827 C   0  0  1  0  0  0  0  0  0  0  0  0
  132.8740  137.2884  161.6445 H   0  0  0  0  0  0  0  0  0  0  0  0
  132.4704  136.2637  159.8425 N   0  0  0  0  0  0  0  0  0  0  0  0
  133.3282  135.7481  159.7136 H   0  0  0  0  0  0  0  0  0  0  0  0
  132.0765  136.4920  158.9421 H   0  0  0  0  0  0  0  0  0  0  0  0
  131.5158  135.4444  160.6012 C   0  0  0  0  0  0  0  0  0  0  0  0
  131.2293  134.1746  159.8419 C   0  0  0  0  0  0  0  0  0  0  0  0
  132.1446  133.3798  159.2474 C   0  0  0  0  0  0  0  0  0  0  0  0
  131.4917  132.3451  158.6751 N   0  0  0  0  0  0  0  0  0  0  0  0
  131.9005  131.6190  158.1786 H   0  0  0  0  0  0  0  0  0  0  0  0
  130.1218  132.5021  158.9221 N   0  0  0  0  0  0  0  0  0  0  0  0
  129.9574  133.6017  159.6309 C   0  0  0  0  0  0  0  0  0  0  0  0
  128.6695  134.1403  160.1148 C   0  0  0  0  0  0  0  0  0  0  0  0
  127.4469  133.5814  159.9140 C   0  0  0  0  0  0  0  0  0  0  0  0
  126.5062  134.4207  160.5431 C   0  0  0  0  0  0  0  0  0  0  0  0
  127.1990  135.4477  161.0955 C   0  0  0  0  0  0  0  0  0  0  0  0
  126.6505  136.5045  161.8127 N   0  0  0  0  0  0  0  0  0  0  0  0
  127.5202  137.5507  162.3560 C   0  0  0  0  0  0  0  0  0  0  0  0
  126.6840  138.5709  163.0846 C   0  0  0  0  0  0  0  0  0  0  0  0
  125.6512  138.2922  163.9858 C   0  0  0  0  0  0  0  0  0  0  0  0
  125.1499  139.4710  164.4220 C   0  0  0  0  0  0  0  0  0  0  0  0
  125.8410  140.4604  163.8182 N   0  0  0  0  0  0  0  0  0  0  0  0
  125.6995  141.4123  163.9408 H   0  0  0  0  0  0  0  0  0  0  0  0
  126.8023  139.8703  162.9877 N   0  0  0  0  0  0  0  0  0  0  0  0
  128.5057  135.2686  160.8372 O   0  0  0  0  0  0  0  0  0  0  0  0
  134.0141  138.1918  160.0203 C   0  0  0  0  0  0  0  0  0  0  0  0
  133.3961  139.1852  159.0093 C   0  0  0  0  0  0  0  0  0  0  0  0
  131.3616  140.2429  159.2037 H   0  0  0  0  0  0  0  0  0  0  0  0
  130.6785  138.4627  160.8690 H   0  0  0  0  0  0  0  0  0  0  0  0
  130.5893  136.0014  160.7405 H   0  0  0  0  0  0  0  0  0  0  0  0
  131.9413  135.1980  161.5740 H   0  0  0  0  0  0  0  0  0  0  0  0
  133.2121  133.5428  159.2323 H   0  0  0  0  0  0  0  0  0  0  0  0
  127.2369  132.6694  159.3750 H   0  0  0  0  0  0  0  0  0  0  0  0
  125.4368  134.2741  160.5788 H   0  0  0  0  0  0  0  0  0  0  0  0
  125.6918  136.5493  161.9534 H   0  0  0  0  0  0  0  0  0  0  0  0
  128.2352  137.1057  163.0481 H   0  0  0  0  0  0  0  0  0  0  0  0
  128.0572  138.0361  161.5411 H   0  0  0  0  0  0  0  0  0  0  0  0
  125.3137  137.3099  164.2815 H   0  0  0  0  0  0  0  0  0  0  0  0
  124.3412  139.5973  165.1267 H   0  0  0  0  0  0  0  0  0  0  0  0
  134.5545  138.7191  160.8065 H   0  0  0  0  0  0  0  0  0  0  0  0
  134.6611  137.4733  159.5173 H   0  0  0  0  0  0  0  0  0  0  0  0
  133.9590  140.1187  159.0016 H   0  0  0  0  0  0  0  0  0  0  0  0
  133.3748  138.7474  158.0114 H   0  0  0  0  0  0  0  0  0  0  0  0
  1 29  1  0
  1  2  2  0
  1 30  1  0
  2  3  1  0
  2 31  1  0
  3  4  1  1
  3  5  1  0
  3 28  1  0
  5  6  1  0
  5  7  1  0
  5  8  1  0
  8  9  1  0
  8 32  1  0
  8 33  1  0
  9 14  1  0
  9 10  2  0
 10 11  1  0
 10 34  1  0
 11 12  1  0
 11 13  1  0
 13 14  2  0
 14 15  1  0
 15 27  1  0
 15 16  2  0
 16 17  1  0
 16 35  1  0
 17 18  2  0
 17 36  1  0
 18 19  1  0
 18 27  1  0
 19 20  1  0
 19 37  1  0
 20 21  1  0
 20 38  1  0
 20 39  1  0
 21 26  2  0
 21 22  1  0
 22 23  2  0
 22 40  1  0
 23 24  1  0
 23 41  1  0
 24 25  1  0
 24 26  1  0
 28 29  1  0
 28 42  1  0
 28 43  1  0
 29 44  1  0
 29 45  1  0
M  CHG  1   5   1
M  END
>  <DOCK_score>  (1) 
-44.772968

>  <SMILES>  (1) 
C1=C[C@@H]([NH2+]Cc2c[nH]nc2-c2ccc(NCc3cc[nH]n3)o2)CC1

$$$$
