CCc1ccccc1COc1cccc([C@@H]([NH3+])C(=O)Nc2cccc(O)c2)c1
     RDKit          3D

 53 55  0  0  1  0  0  0  0  0999 V2000
  135.0786  139.0110  158.0888 C   0  0  0  0  0  0  0  0  0  0  0  0
  134.4352  139.5255  159.3781 C   0  0  0  0  0  0  0  0  0  0  0  0
  135.2564  139.0815  160.5612 C   0  0  0  0  0  0  0  0  0  0  0  0
  136.2807  139.8822  161.0313 C   0  0  0  0  0  0  0  0  0  0  0  0
  137.0369  139.4728  162.1133 C   0  0  0  0  0  0  0  0  0  0  0  0
  136.7663  138.2643  162.7281 C   0  0  0  0  0  0  0  0  0  0  0  0
  135.7395  137.4660  162.2609 C   0  0  0  0  0  0  0  0  0  0  0  0
  134.9825  137.8759  161.1791 C   0  0  0  0  0  0  0  0  0  0  0  0
  133.8629  137.0054  160.6696 C   0  0  0  0  0  0  0  0  0  0  0  0
  133.7787  135.8225  161.4671 O   0  0  0  0  0  0  0  0  0  0  0  0
  132.8133  134.9242  161.1383 C   0  0  0  0  0  0  0  0  0  0  0  0
  132.6753  133.7534  161.8701 C   0  0  0  0  0  0  0  0  0  0  0  0
  131.6938  132.8418  161.5338 C   0  0  0  0  0  0  0  0  0  0  0  0
  130.8452  133.0977  160.4721 C   0  0  0  0  0  0  0  0  0  0  0  0
  130.9843  134.2607  159.7380 C   0  0  0  0  0  0  0  0  0  0  0  0
  130.0620  134.5337  158.5778 C   0  0  1  0  0  0  0  0  0  0  0  0
  129.9300  135.6096  158.4639 H   0  0  0  0  0  0  0  0  0  0  0  0
  130.6441  133.9787  157.3485 N   0  0  0  0  0  0  0  0  0  0  0  0
  131.5392  134.4108  157.1754 H   0  0  0  0  0  0  0  0  0  0  0  0
  130.7662  132.9827  157.4540 H   0  0  0  0  0  0  0  0  0  0  0  0
  130.0265  134.1614  156.5717 H   0  0  0  0  0  0  0  0  0  0  0  0
  128.7250  133.8882  158.8363 C   0  0  0  0  0  0  0  0  0  0  0  0
  128.2990  133.0486  158.0718 O   0  0  0  0  0  0  0  0  0  0  0  0
  128.0002  134.2479  159.9143 N   0  0  0  0  0  0  0  0  0  0  0  0
  126.7564  133.6527  160.1513 C   0  0  0  0  0  0  0  0  0  0  0  0
  126.5158  132.3516  159.7276 C   0  0  0  0  0  0  0  0  0  0  0  0
  125.2897  131.7621  159.9668 C   0  0  0  0  0  0  0  0  0  0  0  0
  124.2957  132.4682  160.6175 C   0  0  0  0  0  0  0  0  0  0  0  0
  124.5284  133.7700  161.0378 C   0  0  0  0  0  0  0  0  0  0  0  0
  123.5499  134.4633  161.6770 O   0  0  0  0  0  0  0  0  0  0  0  0
  125.7595  134.3631  160.8047 C   0  0  0  0  0  0  0  0  0  0  0  0
  131.9646  135.1759  160.0704 C   0  0  0  0  0  0  0  0  0  0  0  0
  135.1212  137.9221  158.1135 H   0  0  0  0  0  0  0  0  0  0  0  0
  134.4848  139.3322  157.2330 H   0  0  0  0  0  0  0  0  0  0  0  0
  136.0884  139.4121  158.0015 H   0  0  0  0  0  0  0  0  0  0  0  0
  133.4255  139.1244  159.4654 H   0  0  0  0  0  0  0  0  0  0  0  0
  134.3927  140.6144  159.3535 H   0  0  0  0  0  0  0  0  0  0  0  0
  136.4919  140.8264  160.5513 H   0  0  0  0  0  0  0  0  0  0  0  0
  137.8389  140.0970  162.4789 H   0  0  0  0  0  0  0  0  0  0  0  0
  137.3572  137.9444  163.5736 H   0  0  0  0  0  0  0  0  0  0  0  0
  135.5281  136.5220  162.7412 H   0  0  0  0  0  0  0  0  0  0  0  0
  134.0584  136.7315  159.6329 H   0  0  0  0  0  0  0  0  0  0  0  0
  132.9216  137.5518  160.7298 H   0  0  0  0  0  0  0  0  0  0  0  0
  133.3346  133.5553  162.7023 H   0  0  0  0  0  0  0  0  0  0  0  0
  131.5857  131.9305  162.1033 H   0  0  0  0  0  0  0  0  0  0  0  0
  130.0754  132.3858  160.2136 H   0  0  0  0  0  0  0  0  0  0  0  0
  128.3410  134.9194  160.5257 H   0  0  0  0  0  0  0  0  0  0  0  0
  127.2894  131.7993  159.2151 H   0  0  0  0  0  0  0  0  0  0  0  0
  125.1060  130.7492  159.6404 H   0  0  0  0  0  0  0  0  0  0  0  0
  123.3367  132.0061  160.7994 H   0  0  0  0  0  0  0  0  0  0  0  0
  123.8054  135.3608  161.9309 H   0  0  0  0  0  0  0  0  0  0  0  0
  125.9425  135.3762  161.1313 H   0  0  0  0  0  0  0  0  0  0  0  0
  132.0703  136.0863  159.4991 H   0  0  0  0  0  0  0  0  0  0  0  0
  1  2  1  0
  1 33  1  0
  1 34  1  0
  1 35  1  0
  2  3  1  0
  2 36  1  0
  2 37  1  0
  3  8  2  0
  3  4  1  0
  4  5  2  0
  4 38  1  0
  5  6  1  0
  5 39  1  0
  6  7  2  0
  6 40  1  0
  7  8  1  0
  7 41  1  0
  8  9  1  0
  9 10  1  0
  9 42  1  0
  9 43  1  0
 10 11  1  0
 11 32  1  0
 11 12  2  0
 12 13  1  0
 12 44  1  0
 13 14  2  0
 13 45  1  0
 14 15  1  0
 14 46  1  0
 15 16  1  0
 15 32  2  0
 16 17  1  6
 16 18  1  0
 16 22  1  0
 18 19  1  0
 18 20  1  0
 18 21  1  0
 22 23  2  0
 22 24  1  0
 24 25  1  0
 24 47  1  0
 25 31  1  0
 25 26  2  0
 26 27  1  0
 26 48  1  0
 27 28  2  0
 27 49  1  0
 28 29  1  0
 28 50  1  0
 29 30  1  0
 29 31  2  0
 30 51  1  0
 31 52  1  0
 32 53  1  0
M  CHG  1  18   1
M  END
>  <DOCK_score>  (1) 
-53.460182

>  <SMILES>  (1) 
CCc1ccccc1COc1cccc([C@@H]([NH3+])C(=O)Nc2cccc(O)c2)c1

$$$$
