COc1ccc2c(c1)OC[C@H]([NH+]=C(NC1CCCCCC1)N[C@H]1CCC(=O)NC1)C2
     RDKit          3D

 65 68  0  0  1  0  0  0  0  0999 V2000
  126.2615  142.5289  166.3979 C   0  0  0  0  0  0  0  0  0  0  0  0
  125.7751  141.5109  165.5208 O   0  0  0  0  0  0  0  0  0  0  0  0
  126.7007  140.7032  164.9397 C   0  0  0  0  0  0  0  0  0  0  0  0
  128.0497  140.8827  165.2121 C   0  0  0  0  0  0  0  0  0  0  0  0
  128.9873  140.0625  164.6178 C   0  0  0  0  0  0  0  0  0  0  0  0
  128.5895  139.0519  163.7575 C   0  0  0  0  0  0  0  0  0  0  0  0
  127.2451  138.8678  163.4835 C   0  0  0  0  0  0  0  0  0  0  0  0
  126.2998  139.6957  164.0788 C   0  0  0  0  0  0  0  0  0  0  0  0
  126.8135  137.8962  162.6377 O   0  0  0  0  0  0  0  0  0  0  0  0
  127.7140  136.8311  162.3302 C   0  0  0  0  0  0  0  0  0  0  0  0
  129.0633  137.4399  161.9275 C   0  0  2  0  0  0  0  0  0  0  0  0
  128.9184  138.1460  161.1101 H   0  0  0  0  0  0  0  0  0  0  0  0
  129.9781  136.3765  161.5047 N   0  0  0  0  0  0  0  0  0  0  0  0
  129.9001  135.4888  161.8878 H   0  0  0  0  0  0  0  0  0  0  0  0
  130.8970  136.6233  160.6138 C   0  0  0  0  0  0  0  0  0  0  0  0
  131.3268  135.6229  159.7742 N   0  0  0  0  0  0  0  0  0  0  0  0
  130.7520  134.2796  159.8811 C   0  0  0  0  0  0  0  0  0  0  0  0
  131.5444  133.4798  160.9353 C   0  0  0  0  0  0  0  0  0  0  0  0
  130.6876  132.3387  161.4129 C   0  0  0  0  0  0  0  0  0  0  0  0
  130.9568  131.0346  160.6379 C   0  0  0  0  0  0  0  0  0  0  0  0
  131.1263  131.2636  159.1238 C   0  0  0  0  0  0  0  0  0  0  0  0
  130.1310  132.2501  158.5758 C   0  0  0  0  0  0  0  0  0  0  0  0
  130.7803  133.6492  158.5697 C   0  0  0  0  0  0  0  0  0  0  0  0
  131.4363  137.8839  160.5134 N   0  0  0  0  0  0  0  0  0  0  0  0
  132.8181  138.0554  160.0581 C   0  0  1  0  0  0  0  0  0  0  0  0
  133.0806  137.2482  159.3743 H   0  0  0  0  0  0  0  0  0  0  0  0
  132.9602  139.4035  159.3414 C   0  0  0  0  0  0  0  0  0  0  0  0
  134.3571  139.4761  158.7197 C   0  0  0  0  0  0  0  0  0  0  0  0
  135.3905  139.0910  159.7388 C   0  0  0  0  0  0  0  0  0  0  0  0
  136.5450  139.3986  159.5302 O   0  0  0  0  0  0  0  0  0  0  0  0
  135.1068  138.4294  160.8613 N   0  0  0  0  0  0  0  0  0  0  0  0
  133.7612  138.0351  161.2618 C   0  0  0  0  0  0  0  0  0  0  0  0
  129.6445  138.1676  163.1422 C   0  0  0  0  0  0  0  0  0  0  0  0
  125.4215  143.1003  166.7926 H   0  0  0  0  0  0  0  0  0  0  0  0
  126.8070  142.0685  167.2217 H   0  0  0  0  0  0  0  0  0  0  0  0
  126.9273  143.1943  165.8482 H   0  0  0  0  0  0  0  0  0  0  0  0
  128.3658  141.6657  165.8854 H   0  0  0  0  0  0  0  0  0  0  0  0
  130.0367  140.2065  164.8281 H   0  0  0  0  0  0  0  0  0  0  0  0
  125.2501  139.5528  163.8687 H   0  0  0  0  0  0  0  0  0  0  0  0
  127.8445  136.1961  163.2065 H   0  0  0  0  0  0  0  0  0  0  0  0
  127.3161  136.2406  161.5049 H   0  0  0  0  0  0  0  0  0  0  0  0
  132.0107  135.8066  159.1112 H   0  0  0  0  0  0  0  0  0  0  0  0
  129.7162  134.3646  160.2097 H   0  0  0  0  0  0  0  0  0  0  0  0
  132.4582  133.0890  160.4876 H   0  0  0  0  0  0  0  0  0  0  0  0
  131.7932  134.1277  161.7758 H   0  0  0  0  0  0  0  0  0  0  0  0
  129.6389  132.6105  161.2922 H   0  0  0  0  0  0  0  0  0  0  0  0
  130.8878  132.1680  162.4707 H   0  0  0  0  0  0  0  0  0  0  0  0
  130.1228  130.3514  160.7989 H   0  0  0  0  0  0  0  0  0  0  0  0
  131.8651  130.5751  161.0277 H   0  0  0  0  0  0  0  0  0  0  0  0
  131.0008  130.3121  158.6070 H   0  0  0  0  0  0  0  0  0  0  0  0
  132.1330  131.6358  158.9339 H   0  0  0  0  0  0  0  0  0  0  0  0
  129.2419  132.2619  159.2063 H   0  0  0  0  0  0  0  0  0  0  0  0
  129.8552  131.9700  157.5591 H   0  0  0  0  0  0  0  0  0  0  0  0
  130.2465  134.2830  157.8616 H   0  0  0  0  0  0  0  0  0  0  0  0
  131.8168  133.5558  158.2452 H   0  0  0  0  0  0  0  0  0  0  0  0
  130.9019  138.6598  160.7443 H   0  0  0  0  0  0  0  0  0  0  0  0
  132.2057  139.4844  158.5589 H   0  0  0  0  0  0  0  0  0  0  0  0
  132.8342  140.2152  160.0579 H   0  0  0  0  0  0  0  0  0  0  0  0
  134.4121  138.7930  157.8722 H   0  0  0  0  0  0  0  0  0  0  0  0
  134.5489  140.4932  158.3778 H   0  0  0  0  0  0  0  0  0  0  0  0
  135.8423  138.1929  161.4481 H   0  0  0  0  0  0  0  0  0  0  0  0
  133.3949  138.7290  162.0182 H   0  0  0  0  0  0  0  0  0  0  0  0
  133.7874  137.0296  161.6820 H   0  0  0  0  0  0  0  0  0  0  0  0
  130.4913  138.7778  162.8283 H   0  0  0  0  0  0  0  0  0  0  0  0
  129.9785  137.4358  163.8777 H   0  0  0  0  0  0  0  0  0  0  0  0
  1  2  1  0
  1 34  1  0
  1 35  1  0
  1 36  1  0
  2  3  1  0
  3  8  2  0
  3  4  1  0
  4  5  2  0
  4 37  1  0
  5  6  1  0
  5 38  1  0
  6 33  1  0
  6  7  2  0
  7  8  1  0
  7  9  1  0
  8 39  1  0
  9 10  1  0
 10 11  1  0
 10 40  1  0
 10 41  1  0
 11 12  1  6
 11 13  1  0
 11 33  1  0
 13 14  1  0
 15 13  2  0
 15 16  1  0
 15 24  1  0
 16 17  1  0
 16 42  1  0
 17 23  1  0
 17 18  1  0
 17 43  1  0
 18 19  1  0
 18 44  1  0
 18 45  1  0
 19 20  1  0
 19 46  1  0
 19 47  1  0
 20 21  1  0
 20 48  1  0
 20 49  1  0
 21 22  1  0
 21 50  1  0
 21 51  1  0
 22 23  1  0
 22 52  1  0
 22 53  1  0
 23 54  1  0
 23 55  1  0
 24 25  1  0
 24 56  1  0
 25 26  1  6
 25 32  1  0
 25 27  1  0
 27 28  1  0
 27 57  1  0
 27 58  1  0
 28 29  1  0
 28 59  1  0
 28 60  1  0
 29 30  2  0
 29 31  1  0
 31 32  1  0
 31 61  1  0
 32 62  1  0
 32 63  1  0
 33 64  1  0
 33 65  1  0
M  CHG  1  13   1
M  END
>  <DOCK_score>  (1) 
-43.067524

>  <SMILES>  (1) 
COc1ccc2c(c1)OC[C@H]([NH+]=C(NC1CCCCCC1)N[C@H]1CCC(=O)NC1)C2

$$$$
