Nc1ccc(Sc2ccccc2)c(Nc2[nH]cc(-c3ccc(F)cc3)[nH+]2)c1
     RDKit          3D

 45 48  0  0  1  0  0  0  0  0999 V2000
  127.1230  134.0676  160.7724 N   0  0  0  0  0  0  0  0  0  0  0  0
  128.0869  133.2905  160.1201 C   0  0  0  0  0  0  0  0  0  0  0  0
  127.7781  131.9984  159.7145 C   0  0  0  0  0  0  0  0  0  0  0  0
  128.7273  131.2283  159.0697 C   0  0  0  0  0  0  0  0  0  0  0  0
  129.9917  131.7440  158.8256 C   0  0  0  0  0  0  0  0  0  0  0  0
  131.2013  130.7610  158.0040 S   0  0  0  0  0  0  0  0  0  0  0  0
  130.9351  131.1432  156.3045 C   0  0  0  0  0  0  0  0  0  0  0  0
  130.4540  132.3949  155.9391 C   0  0  0  0  0  0  0  0  0  0  0  0
  130.2470  132.6910  154.6065 C   0  0  0  0  0  0  0  0  0  0  0  0
  130.5174  131.7428  153.6356 C   0  0  0  0  0  0  0  0  0  0  0  0
  130.9909  130.4951  153.9960 C   0  0  0  0  0  0  0  0  0  0  0  0
  131.2059  130.1937  155.3262 C   0  0  0  0  0  0  0  0  0  0  0  0
  130.3065  133.0395  159.2364 C   0  0  0  0  0  0  0  0  0  0  0  0
  131.5835  133.5606  158.9962 N   0  0  0  0  0  0  0  0  0  0  0  0
  132.1239  134.4961  159.8628 C   0  0  0  0  0  0  0  0  0  0  0  0
  131.8672  134.5826  161.1967 N   0  0  0  0  0  0  0  0  0  0  0  0
  131.2782  134.0052  161.7072 H   0  0  0  0  0  0  0  0  0  0  0  0
  132.5967  135.6387  161.6865 C   0  0  0  0  0  0  0  0  0  0  0  0
  133.2773  136.1665  160.6390 C   0  0  0  0  0  0  0  0  0  0  0  0
  134.1984  137.3282  160.6926 C   0  0  0  0  0  0  0  0  0  0  0  0
  134.3515  138.1508  159.5779 C   0  0  0  0  0  0  0  0  0  0  0  0
  135.2053  139.2332  159.6340 C   0  0  0  0  0  0  0  0  0  0  0  0
  135.9186  139.4962  160.7924 C   0  0  0  0  0  0  0  0  0  0  0  0
  136.7577  140.5539  160.8410 F   0  0  0  0  0  0  0  0  0  0  0  0
  135.7733  138.6784  161.9011 C   0  0  0  0  0  0  0  0  0  0  0  0
  134.9174  137.5969  161.8558 C   0  0  0  0  0  0  0  0  0  0  0  0
  132.9713  135.4409  159.5346 N   0  0  0  0  0  0  0  0  0  0  0  0
  133.3218  135.5976  158.6439 H   0  0  0  0  0  0  0  0  0  0  0  0
  129.3506  133.8117  159.8785 C   0  0  0  0  0  0  0  0  0  0  0  0
  126.2397  133.7040  160.9411 H   0  0  0  0  0  0  0  0  0  0  0  0
  127.3381  134.9700  161.0558 H   0  0  0  0  0  0  0  0  0  0  0  0
  126.7944  131.5947  159.9038 H   0  0  0  0  0  0  0  0  0  0  0  0
  128.4845  130.2238  158.7558 H   0  0  0  0  0  0  0  0  0  0  0  0
  130.2421  133.1350  156.6967 H   0  0  0  0  0  0  0  0  0  0  0  0
  129.8735  133.6635  154.3218 H   0  0  0  0  0  0  0  0  0  0  0  0
  130.3546  131.9781  152.5942 H   0  0  0  0  0  0  0  0  0  0  0  0
  131.1969  129.7563  153.2356 H   0  0  0  0  0  0  0  0  0  0  0  0
  131.5797  129.2200  155.6066 H   0  0  0  0  0  0  0  0  0  0  0  0
  132.0897  133.2664  158.2228 H   0  0  0  0  0  0  0  0  0  0  0  0
  132.6234  135.9824  162.7100 H   0  0  0  0  0  0  0  0  0  0  0  0
  133.7997  137.9436  158.6730 H   0  0  0  0  0  0  0  0  0  0  0  0
  135.3216  139.8735  158.7722 H   0  0  0  0  0  0  0  0  0  0  0  0
  136.3312  138.8871  162.8019 H   0  0  0  0  0  0  0  0  0  0  0  0
  134.8046  136.9601  162.7207 H   0  0  0  0  0  0  0  0  0  0  0  0
  129.5902  134.8164  160.1940 H   0  0  0  0  0  0  0  0  0  0  0  0
  1  2  1  0
  1 30  1  0
  1 31  1  0
  2 29  2  0
  2  3  1  0
  3  4  2  0
  3 32  1  0
  4  5  1  0
  4 33  1  0
  5  6  1  0
  5 13  2  0
  6  7  1  0
  7 12  1  0
  7  8  2  0
  8  9  1  0
  8 34  1  0
  9 10  2  0
  9 35  1  0
 10 11  1  0
 10 36  1  0
 11 12  2  0
 11 37  1  0
 12 38  1  0
 13 14  1  0
 13 29  1  0
 14 39  1  0
 15 14  1  0
 15 27  2  0
 15 16  1  0
 16 17  1  0
 16 18  1  0
 18 19  2  0
 18 40  1  0
 19 20  1  0
 19 27  1  0
 20 26  1  0
 20 21  2  0
 21 22  1  0
 21 41  1  0
 22 23  2  0
 22 42  1  0
 23 24  1  0
 23 25  1  0
 25 26  2  0
 25 43  1  0
 26 44  1  0
 27 28  1  0
 29 45  1  0
M  CHG  1  27   1
M  END
>  <DOCK_score>  (1) 
-58.122543

>  <SMILES>  (1) 
Nc1ccc(Sc2ccccc2)c(Nc2[nH]cc(-c3ccc(F)cc3)[nH+]2)c1

$$$$
