Oc1ccc2c(c1)C([N@H+]1CCC1Cc1ccccc1)c1cc(O)ccc1-2
     RDKit          3D

 48 52  0  0  1  0  0  0  0  0999 V2000
  131.6015  132.1938  157.3185 O   0  0  0  0  0  0  0  0  0  0  0  0
  130.3768  132.3412  157.8886 C   0  0  0  0  0  0  0  0  0  0  0  0
  129.5016  131.2650  157.9417 C   0  0  0  0  0  0  0  0  0  0  0  0
  128.2583  131.4102  158.5187 C   0  0  0  0  0  0  0  0  0  0  0  0
  127.8749  132.6427  159.0523 C   0  0  0  0  0  0  0  0  0  0  0  0
  128.7583  133.7179  158.9955 C   0  0  0  0  0  0  0  0  0  0  0  0
  130.0003  133.5686  158.4178 C   0  0  0  0  0  0  0  0  0  0  0  0
  128.0778  134.9000  159.6412 C   0  0  0  0  0  0  0  0  0  0  0  0
  128.8500  135.3542  160.8055 N   0  0  1  0  0  0  0  0  0  0  0  0
  128.9466  134.6369  161.5086 H   0  0  0  0  0  0  0  0  0  0  0  0
  130.1399  135.9773  160.4354 C   0  0  0  0  0  0  0  0  0  0  0  0
  129.8517  136.9998  161.5494 C   0  0  0  0  0  0  0  0  0  0  0  0
  128.3665  136.6434  161.3566 C   0  0  2  0  0  0  0  0  0  0  0  0
  127.5914  136.5013  162.6680 C   0  0  0  0  0  0  0  0  0  0  0  0
  126.9770  137.8276  163.0348 C   0  0  0  0  0  0  0  0  0  0  0  0
  125.7914  137.8674  163.7443 C   0  0  0  0  0  0  0  0  0  0  0  0
  125.2303  139.0841  164.0848 C   0  0  0  0  0  0  0  0  0  0  0  0
  125.8496  140.2607  163.7070 C   0  0  0  0  0  0  0  0  0  0  0  0
  127.0323  140.2209  162.9925 C   0  0  0  0  0  0  0  0  0  0  0  0
  127.5961  139.0043  162.6565 C   0  0  0  0  0  0  0  0  0  0  0  0
  126.7177  134.4131  160.0775 C   0  0  0  0  0  0  0  0  0  0  0  0
  125.6712  135.0405  160.7150 C   0  0  0  0  0  0  0  0  0  0  0  0
  124.5092  134.3361  161.0017 C   0  0  0  0  0  0  0  0  0  0  0  0
  123.4759  134.9564  161.6294 O   0  0  0  0  0  0  0  0  0  0  0  0
  124.4034  132.9983  160.6465 C   0  0  0  0  0  0  0  0  0  0  0  0
  125.4491  132.3654  160.0093 C   0  0  0  0  0  0  0  0  0  0  0  0
  126.6195  133.0695  159.7184 C   0  0  0  0  0  0  0  0  0  0  0  0
  132.1392  132.9975  157.3282 H   0  0  0  0  0  0  0  0  0  0  0  0
  129.7956  130.3111  157.5294 H   0  0  0  0  0  0  0  0  0  0  0  0
  127.5802  130.5705  158.5584 H   0  0  0  0  0  0  0  0  0  0  0  0
  130.6807  134.4063  158.3764 H   0  0  0  0  0  0  0  0  0  0  0  0
  127.9727  135.7118  158.9213 H   0  0  0  0  0  0  0  0  0  0  0  0
  130.1479  136.4089  159.4346 H   0  0  0  0  0  0  0  0  0  0  0  0
  131.0056  135.3451  160.6328 H   0  0  0  0  0  0  0  0  0  0  0  0
  130.2491  136.7120  162.5227 H   0  0  0  0  0  0  0  0  0  0  0  0
  130.0955  138.0265  161.2764 H   0  0  0  0  0  0  0  0  0  0  0  0
  127.8556  137.2711  160.6266 H   0  0  0  0  0  0  0  0  0  0  0  0
  126.8041  135.7574  162.5460 H   0  0  0  0  0  0  0  0  0  0  0  0
  128.2711  136.1846  163.4592 H   0  0  0  0  0  0  0  0  0  0  0  0
  125.3054  136.9481  164.0360 H   0  0  0  0  0  0  0  0  0  0  0  0
  124.3061  139.1153  164.6428 H   0  0  0  0  0  0  0  0  0  0  0  0
  125.4092  141.2113  163.9699 H   0  0  0  0  0  0  0  0  0  0  0  0
  127.5159  141.1402  162.6970 H   0  0  0  0  0  0  0  0  0  0  0  0
  128.5201  138.9730  162.0983 H   0  0  0  0  0  0  0  0  0  0  0  0
  125.7538  136.0812  160.9911 H   0  0  0  0  0  0  0  0  0  0  0  0
  123.6424  135.8862  161.8361 H   0  0  0  0  0  0  0  0  0  0  0  0
  123.4991  132.4518  160.8697 H   0  0  0  0  0  0  0  0  0  0  0  0
  125.3630  131.3244  159.7346 H   0  0  0  0  0  0  0  0  0  0  0  0
  1  2  1  0
  1 28  1  0
  2  7  2  0
  2  3  1  0
  3  4  2  0
  3 29  1  0
  4  5  1  0
  4 30  1  0
  5 27  1  0
  5  6  2  0
  6  7  1  0
  6  8  1  0
  7 31  1  0
  8  9  1  0
  8 21  1  0
  8 32  1  0
  9 10  1  1
  9 13  1  0
  9 11  1  0
 11 12  1  0
 11 33  1  0
 11 34  1  0
 12 13  1  0
 12 35  1  0
 12 36  1  0
 13 14  1  0
 13 37  1  6
 14 15  1  0
 14 38  1  0
 14 39  1  0
 15 20  1  0
 15 16  2  0
 16 17  1  0
 16 40  1  0
 17 18  2  0
 17 41  1  0
 18 19  1  0
 18 42  1  0
 19 20  2  0
 19 43  1  0
 20 44  1  0
 21 27  2  0
 21 22  1  0
 22 23  2  0
 22 45  1  0
 23 24  1  0
 23 25  1  0
 24 46  1  0
 25 26  2  0
 25 47  1  0
 26 27  1  0
 26 48  1  0
M  CHG  1   9   1
M  END
>  <DOCK_score>  (1) 
-41.821861

>  <SMILES>  (1) 
Oc1ccc2c(c1)C([N@H+]1CCC1Cc1ccccc1)c1cc(O)ccc1-2

$$$$
