O=C1CC[C@H]([NH+]=C(NC2CC=CC2)NC2CC(CCO)C2)CN1
     RDKit          3D

 52 54  0  0  1  0  0  0  0  0999 V2000
  123.9413  133.5696  161.0653 O   0  0  0  0  0  0  0  0  0  0  0  0
  125.0843  133.9139  160.8504 C   0  0  0  0  0  0  0  0  0  0  0  0
  126.0683  132.8714  160.4029 C   0  0  0  0  0  0  0  0  0  0  0  0
  127.4975  133.3811  160.6019 C   0  0  0  0  0  0  0  0  0  0  0  0
  127.5965  134.7913  160.0078 C   0  0  2  0  0  0  0  0  0  0  0  0
  127.2323  134.7819  158.9805 H   0  0  0  0  0  0  0  0  0  0  0  0
  128.9918  135.2374  160.0304 N   0  0  0  0  0  0  0  0  0  0  0  0
  129.2379  136.0352  160.5241 H   0  0  0  0  0  0  0  0  0  0  0  0
  129.9025  134.5620  159.3874 C   0  0  0  0  0  0  0  0  0  0  0  0
  129.5670  133.8652  158.2507 N   0  0  0  0  0  0  0  0  0  0  0  0
  130.5903  133.1061  157.5279 C   0  0  0  0  0  0  0  0  0  0  0  0
  130.1733  132.8731  156.0572 C   0  0  0  0  0  0  0  0  0  0  0  0
  130.6626  131.4793  155.7362 C   0  0  0  0  0  0  0  0  0  0  0  0
  130.9396  130.8156  156.8254 C   0  0  0  0  0  0  0  0  0  0  0  0
  130.6808  131.6552  158.0547 C   0  0  0  0  0  0  0  0  0  0  0  0
  131.1986  134.5465  159.8458 N   0  0  0  0  0  0  0  0  0  0  0  0
  131.5559  135.2892  161.0571 C   0  0  2  0  0  0  0  0  0  0  0  0
  131.8174  136.7840  160.8083 C   0  0  0  0  0  0  0  0  0  0  0  0
  132.9830  136.6653  161.8044 C   0  0  2  0  0  0  0  0  0  0  0  0
  134.2288  137.4488  161.3861 C   0  0  0  0  0  0  0  0  0  0  0  0
  135.3239  137.2655  162.4387 C   0  0  0  0  0  0  0  0  0  0  0  0
  135.6490  135.8787  162.5514 O   0  0  0  0  0  0  0  0  0  0  0  0
  133.0426  135.1726  161.4396 C   0  0  0  0  0  0  0  0  0  0  0  0
  126.7407  135.7410  160.8470 C   0  0  0  0  0  0  0  0  0  0  0  0
  125.3998  135.1978  161.0238 N   0  0  0  0  0  0  0  0  0  0  0  0
  125.9229  131.9622  160.9863 H   0  0  0  0  0  0  0  0  0  0  0  0
  125.9086  132.6521  159.3472 H   0  0  0  0  0  0  0  0  0  0  0  0
  128.1992  132.7191  160.0945 H   0  0  0  0  0  0  0  0  0  0  0  0
  127.7279  133.4144  161.6667 H   0  0  0  0  0  0  0  0  0  0  0  0
  128.6525  133.8762  157.9273 H   0  0  0  0  0  0  0  0  0  0  0  0
  131.5580  133.6046  157.5858 H   0  0  0  0  0  0  0  0  0  0  0  0
  129.0893  132.9274  155.9568 H   0  0  0  0  0  0  0  0  0  0  0  0
  130.6528  133.6039  155.4060 H   0  0  0  0  0  0  0  0  0  0  0  0
  130.7690  131.0845  154.7366 H   0  0  0  0  0  0  0  0  0  0  0  0
  131.3060  129.7999  156.8454 H   0  0  0  0  0  0  0  0  0  0  0  0
  131.5055  131.5585  158.7610 H   0  0  0  0  0  0  0  0  0  0  0  0
  129.7424  131.3629  158.5256 H   0  0  0  0  0  0  0  0  0  0  0  0
  131.8762  134.0439  159.3674 H   0  0  0  0  0  0  0  0  0  0  0  0
  130.8764  135.0969  161.8873 H   0  0  0  0  0  0  0  0  0  0  0  0
  131.0117  137.4316  161.1542 H   0  0  0  0  0  0  0  0  0  0  0  0
  132.1345  137.0083  159.7899 H   0  0  0  0  0  0  0  0  0  0  0  0
  132.6939  136.8508  162.8389 H   0  0  0  0  0  0  0  0  0  0  0  0
  134.5842  137.0795  160.4241 H   0  0  0  0  0  0  0  0  0  0  0  0
  133.9809  138.5067  161.3002 H   0  0  0  0  0  0  0  0  0  0  0  0
  136.2113  137.8237  162.1408 H   0  0  0  0  0  0  0  0  0  0  0  0
  134.9687  137.6348  163.4008 H   0  0  0  0  0  0  0  0  0  0  0  0
  135.9730  135.4826  161.7309 H   0  0  0  0  0  0  0  0  0  0  0  0
  133.6954  134.9555  160.5940 H   0  0  0  0  0  0  0  0  0  0  0  0
  133.2248  134.5212  162.2943 H   0  0  0  0  0  0  0  0  0  0  0  0
  127.2058  135.8776  161.8233 H   0  0  0  0  0  0  0  0  0  0  0  0
  126.6752  136.7061  160.3444 H   0  0  0  0  0  0  0  0  0  0  0  0
  124.6925  135.8088  161.2834 H   0  0  0  0  0  0  0  0  0  0  0  0
  1  2  2  0
  2 25  1  0
  2  3  1  0
  3  4  1  0
  3 26  1  0
  3 27  1  0
  4  5  1  0
  4 28  1  0
  4 29  1  0
  5  6  1  6
  5  7  1  0
  5 24  1  0
  7  8  1  0
  9  7  2  0
  9 10  1  0
  9 16  1  0
 10 11  1  0
 10 30  1  0
 11 15  1  0
 11 12  1  0
 11 31  1  0
 12 13  1  0
 12 32  1  0
 12 33  1  0
 13 14  2  0
 13 34  1  0
 14 15  1  0
 14 35  1  0
 15 36  1  0
 15 37  1  0
 16 17  1  0
 16 38  1  0
 17 23  1  0
 17 18  1  0
 17 39  1  1
 18 19  1  0
 18 40  1  0
 18 41  1  0
 19 20  1  0
 19 23  1  0
 19 42  1  1
 20 21  1  0
 20 43  1  0
 20 44  1  0
 21 22  1  0
 21 45  1  0
 21 46  1  0
 22 47  1  0
 23 48  1  0
 23 49  1  0
 24 25  1  0
 24 50  1  0
 24 51  1  0
 25 52  1  0
M  CHG  1   7   1
M  END
>  <DOCK_score>  (1) 
-41.34

>  <SMILES>  (1) 
O=C1CC[C@H]([NH+]=C(NC2CC=CC2)NC2CC(CCO)C2)CN1

$$$$
