CC=CNc1ccc(Nc2[nH]cc(C)[nH+]2)cc1
     RDKit          3D

 34 35  0  0  1  0  0  0  0  0999 V2000
  127.6567  136.1912  165.4575 C   0  0  0  0  0  0  0  0  0  0  0  0
  127.2211  135.9262  164.0393 C   0  0  0  0  0  0  0  0  0  0  0  0
  126.6403  136.8818  163.3375 C   0  0  0  0  0  0  0  0  0  0  0  0
  126.2389  136.6374  162.0302 N   0  0  0  0  0  0  0  0  0  0  0  0
  127.1825  136.2618  161.0670 C   0  0  0  0  0  0  0  0  0  0  0  0
  126.8066  135.4461  160.0076 C   0  0  0  0  0  0  0  0  0  0  0  0
  127.7374  135.0753  159.0578 C   0  0  0  0  0  0  0  0  0  0  0  0
  129.0500  135.5175  159.1621 C   0  0  0  0  0  0  0  0  0  0  0  0
  129.9942  135.1407  158.1994 N   0  0  0  0  0  0  0  0  0  0  0  0
  129.8697  133.9255  157.5454 C   0  0  0  0  0  0  0  0  0  0  0  0
  129.3124  132.7970  158.0625 N   0  0  0  0  0  0  0  0  0  0  0  0
  128.9327  132.6952  158.9492 H   0  0  0  0  0  0  0  0  0  0  0  0
  129.3902  131.8273  157.0890 C   0  0  0  0  0  0  0  0  0  0  0  0
  129.9853  132.3892  156.0228 C   0  0  0  0  0  0  0  0  0  0  0  0
  130.2835  131.7022  154.7150 C   0  0  0  0  0  0  0  0  0  0  0  0
  130.2738  133.6661  156.3242 N   0  0  0  0  0  0  0  0  0  0  0  0
  130.7102  134.2979  155.7315 H   0  0  0  0  0  0  0  0  0  0  0  0
  129.4272  136.3289  160.2244 C   0  0  0  0  0  0  0  0  0  0  0  0
  128.4950  136.7044  161.1710 C   0  0  0  0  0  0  0  0  0  0  0  0
  126.7902  136.4691  166.0576 H   0  0  0  0  0  0  0  0  0  0  0  0
  128.1123  135.2918  165.8716 H   0  0  0  0  0  0  0  0  0  0  0  0
  128.3825  137.0044  165.4687 H   0  0  0  0  0  0  0  0  0  0  0  0
  127.3842  134.9545  163.5970 H   0  0  0  0  0  0  0  0  0  0  0  0
  126.4772  137.8535  163.7799 H   0  0  0  0  0  0  0  0  0  0  0  0
  125.3048  136.7272  161.7848 H   0  0  0  0  0  0  0  0  0  0  0  0
  125.7862  135.1017  159.9267 H   0  0  0  0  0  0  0  0  0  0  0  0
  127.4452  134.4411  158.2339 H   0  0  0  0  0  0  0  0  0  0  0  0
  130.7357  135.7302  157.9904 H   0  0  0  0  0  0  0  0  0  0  0  0
  129.0399  130.8086  157.1670 H   0  0  0  0  0  0  0  0  0  0  0  0
  129.4374  131.8249  154.0389 H   0  0  0  0  0  0  0  0  0  0  0  0
  131.1735  132.1443  154.2672 H   0  0  0  0  0  0  0  0  0  0  0  0
  130.4555  130.6407  154.8932 H   0  0  0  0  0  0  0  0  0  0  0  0
  130.4487  136.6694  160.3077 H   0  0  0  0  0  0  0  0  0  0  0  0
  128.7874  137.3387  161.9949 H   0  0  0  0  0  0  0  0  0  0  0  0
  1  2  1  0
  1 20  1  0
  1 21  1  0
  1 22  1  0
  2  3  2  0
  2 23  1  0
  3  4  1  0
  3 24  1  0
  4  5  1  0
  4 25  1  0
  5 19  2  0
  5  6  1  0
  6  7  2  0
  6 26  1  0
  7  8  1  0
  7 27  1  0
  8  9  1  0
  8 18  2  0
  9 28  1  0
 10  9  1  0
 10 16  2  0
 10 11  1  0
 11 12  1  0
 11 13  1  0
 13 14  2  0
 13 29  1  0
 14 15  1  0
 14 16  1  0
 15 30  1  0
 15 31  1  0
 15 32  1  0
 16 17  1  0
 18 19  1  0
 18 33  1  0
 19 34  1  0
M  CHG  1  16   1
M  END
>  <DOCK_score>  (1) 
-44.272049

>  <SMILES>  (1) 
CC=CNc1ccc(Nc2[nH]cc(C)[nH+]2)cc1

$$$$
