CNc1ccc(Nc2[nH]cc(-c3ccc(N)cc3)[nH+]2)cc1N
     RDKit          3D

 41 43  0  0  1  0  0  0  0  0999 V2000
  126.7744  136.3344  163.5422 C   0  0  0  0  0  0  0  0  0  0  0  0
  126.4732  136.5519  162.1251 N   0  0  0  0  0  0  0  0  0  0  0  0
  127.3938  136.1554  161.1434 C   0  0  0  0  0  0  0  0  0  0  0  0
  128.7509  136.1512  161.4264 C   0  0  0  0  0  0  0  0  0  0  0  0
  129.6588  135.7608  160.4599 C   0  0  0  0  0  0  0  0  0  0  0  0
  129.2144  135.3718  159.2031 C   0  0  0  0  0  0  0  0  0  0  0  0
  130.1372  134.9829  158.2241 N   0  0  0  0  0  0  0  0  0  0  0  0
  130.0773  133.7092  157.6831 C   0  0  0  0  0  0  0  0  0  0  0  0
  129.6258  132.5963  158.3235 N   0  0  0  0  0  0  0  0  0  0  0  0
  129.2916  132.5523  159.2329 H   0  0  0  0  0  0  0  0  0  0  0  0
  129.7316  131.5460  157.4431 C   0  0  0  0  0  0  0  0  0  0  0  0
  130.2440  132.0477  156.2921 C   0  0  0  0  0  0  0  0  0  0  0  0
  130.5335  131.2780  155.0572 C   0  0  0  0  0  0  0  0  0  0  0  0
  129.8947  131.6083  153.8630 C   0  0  0  0  0  0  0  0  0  0  0  0
  130.1698  130.8956  152.7151 C   0  0  0  0  0  0  0  0  0  0  0  0
  131.0742  129.8408  152.7508 C   0  0  0  0  0  0  0  0  0  0  0  0
  131.3468  129.1162  151.5880 N   0  0  0  0  0  0  0  0  0  0  0  0
  131.7079  129.5060  153.9416 C   0  0  0  0  0  0  0  0  0  0  0  0
  131.4404  130.2199  155.0906 C   0  0  0  0  0  0  0  0  0  0  0  0
  130.4408  133.3779  156.4678 N   0  0  0  0  0  0  0  0  0  0  0  0
  130.7961  133.9867  155.8015 H   0  0  0  0  0  0  0  0  0  0  0  0
  127.8563  135.3739  158.9146 C   0  0  0  0  0  0  0  0  0  0  0  0
  126.9442  135.7651  159.8824 C   0  0  0  0  0  0  0  0  0  0  0  0
  125.5742  135.7681  159.5943 N   0  0  0  0  0  0  0  0  0  0  0  0
  125.9484  136.7039  164.1501 H   0  0  0  0  0  0  0  0  0  0  0  0
  126.9118  135.2688  163.7251 H   0  0  0  0  0  0  0  0  0  0  0  0
  127.6871  136.8689  163.8058 H   0  0  0  0  0  0  0  0  0  0  0  0
  125.6372  136.9699  161.8656 H   0  0  0  0  0  0  0  0  0  0  0  0
  129.0992  136.4535  162.4031 H   0  0  0  0  0  0  0  0  0  0  0  0
  130.7156  135.7586  160.6825 H   0  0  0  0  0  0  0  0  0  0  0  0
  130.8183  135.6054  157.9250 H   0  0  0  0  0  0  0  0  0  0  0  0
  129.4584  130.5184  157.6318 H   0  0  0  0  0  0  0  0  0  0  0  0
  129.1880  132.4247  153.8360 H   0  0  0  0  0  0  0  0  0  0  0  0
  129.6788  131.1542  151.7885 H   0  0  0  0  0  0  0  0  0  0  0  0
  131.9779  128.3800  151.6120 H   0  0  0  0  0  0  0  0  0  0  0  0
  130.9048  129.3491  150.7566 H   0  0  0  0  0  0  0  0  0  0  0  0
  132.4102  128.6859  153.9670 H   0  0  0  0  0  0  0  0  0  0  0  0
  131.9333  129.9597  156.0156 H   0  0  0  0  0  0  0  0  0  0  0  0
  127.5109  135.0716  157.9369 H   0  0  0  0  0  0  0  0  0  0  0  0
  124.9367  136.0420  160.2722 H   0  0  0  0  0  0  0  0  0  0  0  0
  125.2624  135.4964  158.7169 H   0  0  0  0  0  0  0  0  0  0  0  0
  1  2  1  0
  1 25  1  0
  1 26  1  0
  1 27  1  0
  2  3  1  0
  2 28  1  0
  3 23  2  0
  3  4  1  0
  4  5  2  0
  4 29  1  0
  5  6  1  0
  5 30  1  0
  6  7  1  0
  6 22  2  0
  7 31  1  0
  8  7  1  0
  8 20  2  0
  8  9  1  0
  9 10  1  0
  9 11  1  0
 11 12  2  0
 11 32  1  0
 12 13  1  0
 12 20  1  0
 13 19  1  0
 13 14  2  0
 14 15  1  0
 14 33  1  0
 15 16  2  0
 15 34  1  0
 16 17  1  0
 16 18  1  0
 17 35  1  0
 17 36  1  0
 18 19  2  0
 18 37  1  0
 19 38  1  0
 20 21  1  0
 22 23  1  0
 22 39  1  0
 23 24  1  0
 24 40  1  0
 24 41  1  0
M  CHG  1  20   1
M  END
>  <DOCK_score>  (1) 
-54.09119

>  <SMILES>  (1) 
CNc1ccc(Nc2[nH]cc(-c3ccc(N)cc3)[nH+]2)cc1N

$$$$
