Cc1cccc(N2CC[NH+](C(c3ccccc3)c3ccccc3)CC2)c1Cc1nc2ccccc2[nH]1
     RDKit          3D

 69 74  0  0  1  0  0  0  0  0999 V2000
  136.1340  140.9484  162.9359 C   0  0  0  0  0  0  0  0  0  0  0  0
  135.4650  140.3663  161.7174 C   0  0  0  0  0  0  0  0  0  0  0  0
  135.7500  140.8755  160.4633 C   0  0  0  0  0  0  0  0  0  0  0  0
  135.1338  140.3484  159.3434 C   0  0  0  0  0  0  0  0  0  0  0  0
  134.2358  139.3071  159.4730 C   0  0  0  0  0  0  0  0  0  0  0  0
  133.9517  138.7896  160.7303 C   0  0  0  0  0  0  0  0  0  0  0  0
  133.0438  137.7368  160.8650 N   0  0  0  0  0  0  0  0  0  0  0  0
  133.5350  136.5278  160.1889 C   0  0  0  0  0  0  0  0  0  0  0  0
  132.5426  135.3843  160.4102 C   0  0  0  0  0  0  0  0  0  0  0  0
  131.2288  135.7656  159.8754 N   0  0  0  0  0  0  0  0  0  0  0  0
  131.3122  135.9655  158.8898 H   0  0  0  0  0  0  0  0  0  0  0  0
  130.2809  134.6606  160.0717 C   0  0  0  0  0  0  0  0  0  0  0  0
  128.9329  135.0515  159.5230 C   0  0  0  0  0  0  0  0  0  0  0  0
  127.7814  134.5293  160.0815 C   0  0  0  0  0  0  0  0  0  0  0  0
  126.5446  134.8917  159.5812 C   0  0  0  0  0  0  0  0  0  0  0  0
  126.4596  135.7680  158.5165 C   0  0  0  0  0  0  0  0  0  0  0  0
  127.6117  136.2865  157.9539 C   0  0  0  0  0  0  0  0  0  0  0  0
  128.8483  135.9281  158.4575 C   0  0  0  0  0  0  0  0  0  0  0  0
  130.7809  133.4357  159.3501 C   0  0  0  0  0  0  0  0  0  0  0  0
  130.4104  133.2070  158.0382 C   0  0  0  0  0  0  0  0  0  0  0  0
  130.8728  132.0858  157.3748 C   0  0  0  0  0  0  0  0  0  0  0  0
  131.6975  131.1880  158.0266 C   0  0  0  0  0  0  0  0  0  0  0  0
  132.0639  131.4142  159.3403 C   0  0  0  0  0  0  0  0  0  0  0  0
  131.6055  132.5379  160.0021 C   0  0  0  0  0  0  0  0  0  0  0  0
  130.7403  136.9599  160.5771 C   0  0  0  0  0  0  0  0  0  0  0  0
  131.7178  138.1165  160.3573 C   0  0  0  0  0  0  0  0  0  0  0  0
  134.5723  139.3218  161.8536 C   0  0  0  0  0  0  0  0  0  0  0  0
  134.2668  138.7639  163.2197 C   0  0  0  0  0  0  0  0  0  0  0  0
  135.4256  137.9231  163.6897 C   0  0  0  0  0  0  0  0  0  0  0  0
  136.0577  137.0506  162.9602 N   0  0  0  0  0  0  0  0  0  0  0  0
  137.0432  136.4712  163.6929 C   0  0  0  0  0  0  0  0  0  0  0  0
  138.0010  135.4921  163.4161 C   0  0  0  0  0  0  0  0  0  0  0  0
  138.8856  135.1121  164.3853 C   0  0  0  0  0  0  0  0  0  0  0  0
  138.8443  135.6886  165.6470 C   0  0  0  0  0  0  0  0  0  0  0  0
  137.9082  136.6568  165.9424 C   0  0  0  0  0  0  0  0  0  0  0  0
  137.0011  137.0556  164.9700 C   0  0  0  0  0  0  0  0  0  0  0  0
  135.9675  137.9700  164.9366 N   0  0  0  0  0  0  0  0  0  0  0  0
  135.6807  138.5405  165.6670 H   0  0  0  0  0  0  0  0  0  0  0  0
  137.0660  140.4167  163.1276 H   0  0  0  0  0  0  0  0  0  0  0  0
  136.3463  142.0037  162.7645 H   0  0  0  0  0  0  0  0  0  0  0  0
  135.4735  140.8459  163.7970 H   0  0  0  0  0  0  0  0  0  0  0  0
  136.4523  141.6894  160.3592 H   0  0  0  0  0  0  0  0  0  0  0  0
  135.3552  140.7514  158.3662 H   0  0  0  0  0  0  0  0  0  0  0  0
  133.7549  138.8958  158.5979 H   0  0  0  0  0  0  0  0  0  0  0  0
  133.6331  136.7227  159.1210 H   0  0  0  0  0  0  0  0  0  0  0  0
  134.5062  136.2509  160.5991 H   0  0  0  0  0  0  0  0  0  0  0  0
  132.4550  135.1805  161.4774 H   0  0  0  0  0  0  0  0  0  0  0  0
  132.8980  134.4904  159.8976 H   0  0  0  0  0  0  0  0  0  0  0  0
  130.1910  134.4438  161.1362 H   0  0  0  0  0  0  0  0  0  0  0  0
  127.8477  133.8410  160.9111 H   0  0  0  0  0  0  0  0  0  0  0  0
  125.6448  134.4866  160.0200 H   0  0  0  0  0  0  0  0  0  0  0  0
  125.4940  136.0480  158.1221 H   0  0  0  0  0  0  0  0  0  0  0  0
  127.5457  136.9711  157.1212 H   0  0  0  0  0  0  0  0  0  0  0  0
  129.7482  136.3328  158.0182 H   0  0  0  0  0  0  0  0  0  0  0  0
  129.7624  133.9059  157.5304 H   0  0  0  0  0  0  0  0  0  0  0  0
  130.5863  131.9090  156.3487 H   0  0  0  0  0  0  0  0  0  0  0  0
  132.0553  130.3099  157.5098 H   0  0  0  0  0  0  0  0  0  0  0  0
  132.7079  130.7126  159.8498 H   0  0  0  0  0  0  0  0  0  0  0  0
  131.8915  132.7144  161.0284 H   0  0  0  0  0  0  0  0  0  0  0  0
  130.6621  136.7480  161.6435 H   0  0  0  0  0  0  0  0  0  0  0  0
  129.7596  137.2341  160.1883 H   0  0  0  0  0  0  0  0  0  0  0  0
  131.3632  138.9987  160.8902 H   0  0  0  0  0  0  0  0  0  0  0  0
  131.7859  138.3376  159.2921 H   0  0  0  0  0  0  0  0  0  0  0  0
  133.3685  138.1485  163.1683 H   0  0  0  0  0  0  0  0  0  0  0  0
  134.1056  139.5841  163.9194 H   0  0  0  0  0  0  0  0  0  0  0  0
  138.0417  135.0364  162.4379 H   0  0  0  0  0  0  0  0  0  0  0  0
  139.6245  134.3551  164.1675 H   0  0  0  0  0  0  0  0  0  0  0  0
  139.5503  135.3771  166.4024 H   0  0  0  0  0  0  0  0  0  0  0  0
  137.8803  137.1022  166.9258 H   0  0  0  0  0  0  0  0  0  0  0  0
  1  2  1  0
  1 39  1  0
  1 40  1  0
  1 41  1  0
  2 27  2  0
  2  3  1  0
  3  4  2  0
  3 42  1  0
  4  5  1  0
  4 43  1  0
  5  6  2  0
  5 44  1  0
  6  7  1  0
  6 27  1  0
  7 26  1  0
  7  8  1  0
  8  9  1  0
  8 45  1  0
  8 46  1  0
  9 10  1  0
  9 47  1  0
  9 48  1  0
 10 11  1  0
 10 12  1  0
 10 25  1  0
 12 13  1  0
 12 19  1  0
 12 49  1  0
 13 18  1  0
 13 14  2  0
 14 15  1  0
 14 50  1  0
 15 16  2  0
 15 51  1  0
 16 17  1  0
 16 52  1  0
 17 18  2  0
 17 53  1  0
 18 54  1  0
 19 24  1  0
 19 20  2  0
 20 21  1  0
 20 55  1  0
 21 22  2  0
 21 56  1  0
 22 23  1  0
 22 57  1  0
 23 24  2  0
 23 58  1  0
 24 59  1  0
 25 26  1  0
 25 60  1  0
 25 61  1  0
 26 62  1  0
 26 63  1  0
 27 28  1  0
 28 29  1  0
 28 64  1  0
 28 65  1  0
 29 37  1  0
 29 30  2  0
 30 31  1  0
 31 36  2  0
 31 32  1  0
 32 33  2  0
 32 66  1  0
 33 34  1  0
 33 67  1  0
 34 35  2  0
 34 68  1  0
 35 36  1  0
 35 69  1  0
 36 37  1  0
 37 38  1  0
M  CHG  1  10   1
M  END
>  <DOCK_score>  (1) 
-64.562386

>  <SMILES>  (1) 
Cc1cccc(N2CC[NH+](C(c3ccccc3)c3ccccc3)CC2)c1Cc1nc2ccccc2[nH]1

$$$$
