CCc1ccc(-c2c[nH]c(N[C@@H](Cc3ccccc3)c3cccc4ccccc34)[nH+]2)cc1
     RDKit          3D

 60 64  0  0  1  0  0  0  0  0999 V2000
  131.7951  129.9884  152.2252 C   0  0  0  0  0  0  0  0  0  0  0  0
  130.6874  129.4970  153.1591 C   0  0  0  0  0  0  0  0  0  0  0  0
  130.6534  130.3587  154.3951 C   0  0  0  0  0  0  0  0  0  0  0  0
  129.8584  131.4898  154.4245 C   0  0  0  0  0  0  0  0  0  0  0  0
  129.8189  132.2796  155.5556 C   0  0  0  0  0  0  0  0  0  0  0  0
  130.5910  131.9416  156.6656 C   0  0  0  0  0  0  0  0  0  0  0  0
  130.5571  132.7896  157.8822 C   0  0  0  0  0  0  0  0  0  0  0  0
  130.1847  132.3899  159.1234 C   0  0  0  0  0  0  0  0  0  0  0  0
  130.3009  133.4839  159.9460 N   0  0  0  0  0  0  0  0  0  0  0  0
  130.1049  133.5121  160.8956 H   0  0  0  0  0  0  0  0  0  0  0  0
  130.7413  134.5210  159.1828 C   0  0  0  0  0  0  0  0  0  0  0  0
  130.9879  135.8064  159.6339 N   0  0  0  0  0  0  0  0  0  0  0  0
  130.7753  136.1411  161.0443 C   0  0  1  0  0  0  0  0  0  0  0  0
  131.4159  135.5163  161.6665 H   0  0  0  0  0  0  0  0  0  0  0  0
  131.1188  137.6140  161.2761 C   0  0  0  0  0  0  0  0  0  0  0  0
  132.6130  137.7682  161.3971 C   0  0  0  0  0  0  0  0  0  0  0  0
  133.2193  137.6765  162.6359 C   0  0  0  0  0  0  0  0  0  0  0  0
  134.5905  137.8133  162.7462 C   0  0  0  0  0  0  0  0  0  0  0  0
  135.3541  138.0521  161.6189 C   0  0  0  0  0  0  0  0  0  0  0  0
  134.7471  138.1490  160.3808 C   0  0  0  0  0  0  0  0  0  0  0  0
  133.3766  138.0070  160.2697 C   0  0  0  0  0  0  0  0  0  0  0  0
  129.3325  135.8989  161.4060 C   0  0  0  0  0  0  0  0  0  0  0  0
  128.3587  136.0374  160.4651 C   0  0  0  0  0  0  0  0  0  0  0  0
  127.0200  135.8131  160.7796 C   0  0  0  0  0  0  0  0  0  0  0  0
  126.6460  135.4583  162.0394 C   0  0  0  0  0  0  0  0  0  0  0  0
  127.6226  135.3106  163.0388 C   0  0  0  0  0  0  0  0  0  0  0  0
  127.2749  134.9451  164.3504 C   0  0  0  0  0  0  0  0  0  0  0  0
  128.2480  134.8111  165.2924 C   0  0  0  0  0  0  0  0  0  0  0  0
  129.5876  135.0315  164.9768 C   0  0  0  0  0  0  0  0  0  0  0  0
  129.9617  135.3863  163.7173 C   0  0  0  0  0  0  0  0  0  0  0  0
  128.9849  135.5344  162.7176 C   0  0  0  0  0  0  0  0  0  0  0  0
  130.8987  134.1007  157.9513 N   0  0  0  0  0  0  0  0  0  0  0  0
  131.2078  134.6414  157.2077 H   0  0  0  0  0  0  0  0  0  0  0  0
  131.3948  130.8035  156.6285 C   0  0  0  0  0  0  0  0  0  0  0  0
  131.4221  130.0180  155.4942 C   0  0  0  0  0  0  0  0  0  0  0  0
  131.5987  131.0224  151.9418 H   0  0  0  0  0  0  0  0  0  0  0  0
  132.7556  129.9280  152.7368 H   0  0  0  0  0  0  0  0  0  0  0  0
  131.8197  129.3650  151.3314 H   0  0  0  0  0  0  0  0  0  0  0  0
  129.7272  129.5567  152.6479 H   0  0  0  0  0  0  0  0  0  0  0  0
  130.8842  128.4624  153.4431 H   0  0  0  0  0  0  0  0  0  0  0  0
  129.2643  131.7534  153.5621 H   0  0  0  0  0  0  0  0  0  0  0  0
  129.1941  133.1603  155.5790 H   0  0  0  0  0  0  0  0  0  0  0  0
  129.8589  131.4010  159.4102 H   0  0  0  0  0  0  0  0  0  0  0  0
  131.3017  136.4853  159.0162 H   0  0  0  0  0  0  0  0  0  0  0  0
  130.7590  138.2077  160.4359 H   0  0  0  0  0  0  0  0  0  0  0  0
  130.6425  137.9579  162.1944 H   0  0  0  0  0  0  0  0  0  0  0  0
  132.6222  137.4944  163.5173 H   0  0  0  0  0  0  0  0  0  0  0  0
  135.0647  137.7380  163.7137 H   0  0  0  0  0  0  0  0  0  0  0  0
  136.4248  138.1633  161.7056 H   0  0  0  0  0  0  0  0  0  0  0  0
  135.3438  138.3359  159.5000 H   0  0  0  0  0  0  0  0  0  0  0  0
  132.9023  138.0831  159.3025 H   0  0  0  0  0  0  0  0  0  0  0  0
  128.6281  136.3219  159.4585 H   0  0  0  0  0  0  0  0  0  0  0  0
  126.2673  135.9261  160.0133 H   0  0  0  0  0  0  0  0  0  0  0  0
  125.6042  135.2906  162.2695 H   0  0  0  0  0  0  0  0  0  0  0  0
  126.2411  134.7711  164.6096 H   0  0  0  0  0  0  0  0  0  0  0  0
  127.9781  134.5300  166.2997 H   0  0  0  0  0  0  0  0  0  0  0  0
  130.3402  134.9188  165.7433 H   0  0  0  0  0  0  0  0  0  0  0  0
  131.0036  135.5531  163.4873 H   0  0  0  0  0  0  0  0  0  0  0  0
  131.9953  130.5370  157.4857 H   0  0  0  0  0  0  0  0  0  0  0  0
  132.0447  129.1361  155.4642 H   0  0  0  0  0  0  0  0  0  0  0  0
  1  2  1  0
  1 36  1  0
  1 37  1  0
  1 38  1  0
  2  3  1  0
  2 39  1  0
  2 40  1  0
  3 35  2  0
  3  4  1  0
  4  5  2  0
  4 41  1  0
  5  6  1  0
  5 42  1  0
  6  7  1  0
  6 34  2  0
  7 32  1  0
  7  8  2  0
  8  9  1  0
  8 43  1  0
  9 10  1  0
  9 11  1  0
 11 12  1  0
 11 32  2  0
 12 13  1  0
 12 44  1  0
 13 14  1  1
 13 15  1  0
 13 22  1  0
 15 16  1  0
 15 45  1  0
 15 46  1  0
 16 21  1  0
 16 17  2  0
 17 18  1  0
 17 47  1  0
 18 19  2  0
 18 48  1  0
 19 20  1  0
 19 49  1  0
 20 21  2  0
 20 50  1  0
 21 51  1  0
 22 31  1  0
 22 23  2  0
 23 24  1  0
 23 52  1  0
 24 25  2  0
 24 53  1  0
 25 26  1  0
 25 54  1  0
 26 31  2  0
 26 27  1  0
 27 28  2  0
 27 55  1  0
 28 29  1  0
 28 56  1  0
 29 30  2  0
 29 57  1  0
 30 31  1  0
 30 58  1  0
 32 33  1  0
 34 35  1  0
 34 59  1  0
 35 60  1  0
M  CHG  1  32   1
M  END
>  <DOCK_score>  (1) 
-57.396694

>  <SMILES>  (1) 
CCc1ccc(-c2c[nH]c(N[C@@H](Cc3ccccc3)c3cccc4ccccc34)[nH+]2)cc1

$$$$
