Oc1cccc(-c2c[nH]c(Nc3ccc(C4CCCCC4)cc3)[nH+]2)c1
     RDKit          3D

 49 52  0  0  1  0  0  0  0  0999 V2000
  123.8827  134.4528  162.0047 O   0  0  0  0  0  0  0  0  0  0  0  0
  124.7865  133.7022  161.3216 C   0  0  0  0  0  0  0  0  0  0  0  0
  124.5362  132.3567  161.0876 C   0  0  0  0  0  0  0  0  0  0  0  0
  125.4522  131.5896  160.3929 C   0  0  0  0  0  0  0  0  0  0  0  0
  126.6196  132.1581  159.9238 C   0  0  0  0  0  0  0  0  0  0  0  0
  126.8812  133.5068  160.1590 C   0  0  0  0  0  0  0  0  0  0  0  0
  128.1371  134.1189  159.6603 C   0  0  0  0  0  0  0  0  0  0  0  0
  128.3138  134.7041  158.4496 C   0  0  0  0  0  0  0  0  0  0  0  0
  129.6173  135.1334  158.4010 N   0  0  0  0  0  0  0  0  0  0  0  0
  130.0441  135.5914  157.6599 H   0  0  0  0  0  0  0  0  0  0  0  0
  130.2000  134.7979  159.5845 C   0  0  0  0  0  0  0  0  0  0  0  0
  131.5146  135.0542  159.9381 N   0  0  0  0  0  0  0  0  0  0  0  0
  131.8503  135.2597  161.2793 C   0  0  0  0  0  0  0  0  0  0  0  0
  133.1113  134.9071  161.7431 C   0  0  0  0  0  0  0  0  0  0  0  0
  133.4399  135.1118  163.0687 C   0  0  0  0  0  0  0  0  0  0  0  0
  132.5153  135.6677  163.9340 C   0  0  0  0  0  0  0  0  0  0  0  0
  132.8775  135.8900  165.3798 C   0  0  0  0  0  0  0  0  0  0  0  0
  134.3126  135.4187  165.6243 C   0  0  0  0  0  0  0  0  0  0  0  0
  134.6805  135.6443  167.0921 C   0  0  0  0  0  0  0  0  0  0  0  0
  134.5695  137.1342  167.4224 C   0  0  0  0  0  0  0  0  0  0  0  0
  133.1346  137.6053  167.1780 C   0  0  0  0  0  0  0  0  0  0  0  0
  132.7668  137.3797  165.7101 C   0  0  0  0  0  0  0  0  0  0  0  0
  131.2571  136.0145  163.4768 C   0  0  0  0  0  0  0  0  0  0  0  0
  130.9238  135.8174  162.1513 C   0  0  0  0  0  0  0  0  0  0  0  0
  129.3133  134.1871  160.3322 N   0  0  0  0  0  0  0  0  0  0  0  0
  129.4724  133.8411  161.2243 H   0  0  0  0  0  0  0  0  0  0  0  0
  125.9572  134.2797  160.8587 C   0  0  0  0  0  0  0  0  0  0  0  0
  124.1442  135.3769  162.1177 H   0  0  0  0  0  0  0  0  0  0  0  0
  123.6225  131.9084  161.4491 H   0  0  0  0  0  0  0  0  0  0  0  0
  125.2524  130.5436  160.2129 H   0  0  0  0  0  0  0  0  0  0  0  0
  127.3316  131.5571  159.3777 H   0  0  0  0  0  0  0  0  0  0  0  0
  127.5716  134.8116  157.6724 H   0  0  0  0  0  0  0  0  0  0  0  0
  132.2023  135.0911  159.2549 H   0  0  0  0  0  0  0  0  0  0  0  0
  133.8339  134.4731  161.0678 H   0  0  0  0  0  0  0  0  0  0  0  0
  134.4201  134.8379  163.4301 H   0  0  0  0  0  0  0  0  0  0  0  0
  132.1963  135.3250  166.0161 H   0  0  0  0  0  0  0  0  0  0  0  0
  134.9939  135.9837  164.9880 H   0  0  0  0  0  0  0  0  0  0  0  0
  134.3915  134.3573  165.3889 H   0  0  0  0  0  0  0  0  0  0  0  0
  135.7028  135.3087  167.2663 H   0  0  0  0  0  0  0  0  0  0  0  0
  133.9992  135.0795  167.7284 H   0  0  0  0  0  0  0  0  0  0  0  0
  134.8316  137.2949  168.4682 H   0  0  0  0  0  0  0  0  0  0  0  0
  135.2508  137.6991  166.7862 H   0  0  0  0  0  0  0  0  0  0  0  0
  132.4533  137.0404  167.8143 H   0  0  0  0  0  0  0  0  0  0  0  0
  133.0556  138.6667  167.4134 H   0  0  0  0  0  0  0  0  0  0  0  0
  131.7444  137.7154  165.5361 H   0  0  0  0  0  0  0  0  0  0  0  0
  133.4480  137.9446  165.0739 H   0  0  0  0  0  0  0  0  0  0  0  0
  130.5359  136.4444  164.1562 H   0  0  0  0  0  0  0  0  0  0  0  0
  129.9424  136.0927  161.7938 H   0  0  0  0  0  0  0  0  0  0  0  0
  126.1531  135.3262  161.0394 H   0  0  0  0  0  0  0  0  0  0  0  0
  1  2  1  0
  1 28  1  0
  2 27  2  0
  2  3  1  0
  3  4  2  0
  3 29  1  0
  4  5  1  0
  4 30  1  0
  5  6  2  0
  5 31  1  0
  6  7  1  0
  6 27  1  0
  7 25  1  0
  7  8  2  0
  8  9  1  0
  8 32  1  0
  9 10  1  0
  9 11  1  0
 11 12  1  0
 11 25  2  0
 12 13  1  0
 12 33  1  0
 13 24  1  0
 13 14  2  0
 14 15  1  0
 14 34  1  0
 15 16  2  0
 15 35  1  0
 16 17  1  0
 16 23  1  0
 17 22  1  0
 17 18  1  0
 17 36  1  0
 18 19  1  0
 18 37  1  0
 18 38  1  0
 19 20  1  0
 19 39  1  0
 19 40  1  0
 20 21  1  0
 20 41  1  0
 20 42  1  0
 21 22  1  0
 21 43  1  0
 21 44  1  0
 22 45  1  0
 22 46  1  0
 23 24  2  0
 23 47  1  0
 24 48  1  0
 25 26  1  0
 27 49  1  0
M  CHG  1  25   1
M  END
>  <DOCK_score>  (1) 
-43.271214

>  <SMILES>  (1) 
Oc1cccc(-c2c[nH]c(Nc3ccc(C4CCCCC4)cc3)[nH+]2)c1

$$$$
