Cc1ccc(-c2ccc3c(c2)C[C@H](NC(N[C@H]2CCC(=O)NC2)=[NH+]C2CC2)C3)cc1
     RDKit          3D

 61 65  0  0  1  0  0  0  0  0999 V2000
  139.4640  136.2608  167.9156 C   0  0  0  0  0  0  0  0  0  0  0  0
  138.4016  136.3385  166.8496 C   0  0  0  0  0  0  0  0  0  0  0  0
  137.3403  135.4515  166.8681 C   0  0  0  0  0  0  0  0  0  0  0  0
  136.3649  135.5182  165.8940 C   0  0  0  0  0  0  0  0  0  0  0  0
  136.4504  136.4815  164.8909 C   0  0  0  0  0  0  0  0  0  0  0  0
  135.4046  136.5582  163.8409 C   0  0  0  0  0  0  0  0  0  0  0  0
  135.1016  137.7795  163.2423 C   0  0  0  0  0  0  0  0  0  0  0  0
  134.1243  137.8435  162.2718 C   0  0  0  0  0  0  0  0  0  0  0  0
  133.4500  136.6976  161.8794 C   0  0  0  0  0  0  0  0  0  0  0  0
  133.7516  135.4815  162.4657 C   0  0  0  0  0  0  0  0  0  0  0  0
  134.7260  135.4093  163.4445 C   0  0  0  0  0  0  0  0  0  0  0  0
  132.8833  134.3956  161.8669 C   0  0  0  0  0  0  0  0  0  0  0  0
  131.7236  135.1419  161.1740 C   0  0  2  0  0  0  0  0  0  0  0  0
  130.8782  135.2590  161.8520 H   0  0  0  0  0  0  0  0  0  0  0  0
  131.3148  134.4474  159.9506 N   0  0  0  0  0  0  0  0  0  0  0  0
  130.0106  134.5210  159.5215 C   0  0  0  0  0  0  0  0  0  0  0  0
  129.0902  135.2462  160.2404 N   0  0  0  0  0  0  0  0  0  0  0  0
  127.6800  134.8492  160.2359 C   0  0  1  0  0  0  0  0  0  0  0  0
  127.2957  134.8760  159.2163 H   0  0  0  0  0  0  0  0  0  0  0  0
  127.5434  133.4298  160.8000 C   0  0  0  0  0  0  0  0  0  0  0  0
  126.0937  132.9744  160.6187 C   0  0  0  0  0  0  0  0  0  0  0  0
  125.1555  134.0395  161.1093 C   0  0  0  0  0  0  0  0  0  0  0  0
  124.0059  133.7297  161.3402 O   0  0  0  0  0  0  0  0  0  0  0  0
  125.5189  135.3075  161.3050 N   0  0  0  0  0  0  0  0  0  0  0  0
  126.8743  135.8081  161.1133 C   0  0  0  0  0  0  0  0  0  0  0  0
  129.6470  133.9030  158.4329 N   0  0  0  0  0  0  0  0  0  0  0  0
  128.7270  133.9548  158.1300 H   0  0  0  0  0  0  0  0  0  0  0  0
  130.6280  133.1304  157.6667 C   0  0  0  0  0  0  0  0  0  0  0  0
  130.0955  132.0487  156.7248 C   0  0  0  0  0  0  0  0  0  0  0  0
  130.7993  131.6529  158.0252 C   0  0  0  0  0  0  0  0  0  0  0  0
  132.3583  136.5102  160.8470 C   0  0  0  0  0  0  0  0  0  0  0  0
  137.5244  137.3690  164.8741 C   0  0  0  0  0  0  0  0  0  0  0  0
  138.4917  137.2964  165.8559 C   0  0  0  0  0  0  0  0  0  0  0  0
  140.2567  135.5869  167.5898 H   0  0  0  0  0  0  0  0  0  0  0  0
  139.8787  137.2532  168.0887 H   0  0  0  0  0  0  0  0  0  0  0  0
  139.0244  135.8840  168.8395 H   0  0  0  0  0  0  0  0  0  0  0  0
  137.2750  134.7051  167.6461 H   0  0  0  0  0  0  0  0  0  0  0  0
  135.5370  134.8249  165.9089 H   0  0  0  0  0  0  0  0  0  0  0  0
  135.6271  138.6743  163.5412 H   0  0  0  0  0  0  0  0  0  0  0  0
  133.8858  138.7909  161.8116 H   0  0  0  0  0  0  0  0  0  0  0  0
  134.9610  134.4596  163.9020 H   0  0  0  0  0  0  0  0  0  0  0  0
  133.4502  133.8172  161.1376 H   0  0  0  0  0  0  0  0  0  0  0  0
  132.4999  133.7426  162.6510 H   0  0  0  0  0  0  0  0  0  0  0  0
  131.9640  133.9356  159.4433 H   0  0  0  0  0  0  0  0  0  0  0  0
  129.3746  136.0206  160.7506 H   0  0  0  0  0  0  0  0  0  0  0  0
  128.2116  132.7560  160.2639 H   0  0  0  0  0  0  0  0  0  0  0  0
  127.7955  133.4305  161.8605 H   0  0  0  0  0  0  0  0  0  0  0  0
  125.9281  132.0575  161.1843 H   0  0  0  0  0  0  0  0  0  0  0  0
  125.9069  132.7864  159.5614 H   0  0  0  0  0  0  0  0  0  0  0  0
  124.8385  135.9362  161.5925 H   0  0  0  0  0  0  0  0  0  0  0  0
  127.3627  135.9059  162.0829 H   0  0  0  0  0  0  0  0  0  0  0  0
  126.8327  136.7862  160.6341 H   0  0  0  0  0  0  0  0  0  0  0  0
  131.5163  133.6784  157.3526 H   0  0  0  0  0  0  0  0  0  0  0  0
  129.0152  131.9119  156.6753 H   0  0  0  0  0  0  0  0  0  0  0  0
  130.6337  131.8848  155.7913 H   0  0  0  0  0  0  0  0  0  0  0  0
  131.8003  131.2287  157.9466 H   0  0  0  0  0  0  0  0  0  0  0  0
  130.1821  131.2557  158.8311 H   0  0  0  0  0  0  0  0  0  0  0  0
  131.6149  137.3025  160.9347 H   0  0  0  0  0  0  0  0  0  0  0  0
  132.7843  136.4994  159.8439 H   0  0  0  0  0  0  0  0  0  0  0  0
  137.5981  138.1146  164.0962 H   0  0  0  0  0  0  0  0  0  0  0  0
  139.3227  137.9862  165.8461 H   0  0  0  0  0  0  0  0  0  0  0  0
  1  2  1  0
  1 34  1  0
  1 35  1  0
  1 36  1  0
  2 33  2  0
  2  3  1  0
  3  4  2  0
  3 37  1  0
  4  5  1  0
  4 38  1  0
  5  6  1  0
  5 32  2  0
  6 11  1  0
  6  7  2  0
  7  8  1  0
  7 39  1  0
  8  9  2  0
  8 40  1  0
  9 31  1  0
  9 10  1  0
 10 11  2  0
 10 12  1  0
 11 41  1  0
 12 13  1  0
 12 42  1  0
 12 43  1  0
 13 14  1  1
 13 15  1  0
 13 31  1  0
 15 44  1  0
 16 15  1  0
 16 17  1  0
 16 26  2  0
 17 18  1  0
 17 45  1  0
 18 19  1  6
 18 25  1  0
 18 20  1  0
 20 21  1  0
 20 46  1  0
 20 47  1  0
 21 22  1  0
 21 48  1  0
 21 49  1  0
 22 23  2  0
 22 24  1  0
 24 25  1  0
 24 50  1  0
 25 51  1  0
 25 52  1  0
 26 27  1  0
 26 28  1  0
 28 30  1  0
 28 29  1  0
 28 53  1  0
 29 30  1  0
 29 54  1  0
 29 55  1  0
 30 56  1  0
 30 57  1  0
 31 58  1  0
 31 59  1  0
 32 33  1  0
 32 60  1  0
 33 61  1  0
M  CHG  1  26   1
M  END
>  <DOCK_score>  (1) 
-45.105042

>  <SMILES>  (1) 
Cc1ccc(-c2ccc3c(c2)C[C@H](NC(N[C@H]2CCC(=O)NC2)=[NH+]C2CC2)C3)cc1

$$$$
