C=C/C=C/CNC(N[C@H]1CCC(=O)NC1)=[NH+]C1COc2cc(F)ccc2C1
     RDKit          3D

 53 55  0  0  1  0  0  0  0  0999 V2000
  129.8600  129.0835  159.4395 C   0  0  0  0  0  0  0  0  0  0  0  0
  130.6866  130.0605  159.0826 C   0  0  0  0  0  0  0  0  0  0  0  0
  130.1569  131.2766  158.4462 C   0  0  0  0  0  0  0  0  0  0  0  0
  130.9836  132.2537  158.0894 C   0  0  0  0  0  0  0  0  0  0  0  0
  130.4410  133.4994  157.4376 C   0  0  0  0  0  0  0  0  0  0  0  0
  129.4928  134.1515  158.3442 N   0  0  0  0  0  0  0  0  0  0  0  0
  129.9090  134.5791  159.5827 C   0  0  0  0  0  0  0  0  0  0  0  0
  129.0192  135.1910  160.4336 N   0  0  0  0  0  0  0  0  0  0  0  0
  127.5976  134.8404  160.3827 C   0  0  1  0  0  0  0  0  0  0  0  0
  127.2004  135.0571  159.3910 H   0  0  0  0  0  0  0  0  0  0  0  0
  127.4242  133.3485  160.6917 C   0  0  0  0  0  0  0  0  0  0  0  0
  125.9598  132.9721  160.4534 C   0  0  0  0  0  0  0  0  0  0  0  0
  125.0616  133.9600  161.1411 C   0  0  0  0  0  0  0  0  0  0  0  0
  123.9055  133.6479  161.3328 O   0  0  0  0  0  0  0  0  0  0  0  0
  125.4642  135.1610  161.5527 N   0  0  0  0  0  0  0  0  0  0  0  0
  126.8318  135.6497  161.4302 C   0  0  0  0  0  0  0  0  0  0  0  0
  131.1472  134.4044  159.9503 N   0  0  0  0  0  0  0  0  0  0  0  0
  131.7751  133.9726  159.3500 H   0  0  0  0  0  0  0  0  0  0  0  0
  131.5908  134.8600  161.2702 C   0  0  1  0  0  0  0  0  0  0  0  0
  130.8003  134.1283  162.3624 C   0  0  0  0  0  0  0  0  0  0  0  0
  131.1800  134.6662  163.6299 O   0  0  0  0  0  0  0  0  0  0  0  0
  132.5064  134.7787  163.9003 C   0  0  0  0  0  0  0  0  0  0  0  0
  132.9017  134.9474  165.2233 C   0  0  0  0  0  0  0  0  0  0  0  0
  134.2417  135.0694  165.5381 C   0  0  0  0  0  0  0  0  0  0  0  0
  134.6224  135.2322  166.8242 F   0  0  0  0  0  0  0  0  0  0  0  0
  135.1942  135.0243  164.5334 C   0  0  0  0  0  0  0  0  0  0  0  0
  134.8033  134.8557  163.2200 C   0  0  0  0  0  0  0  0  0  0  0  0
  133.4614  134.7307  162.8996 C   0  0  0  0  0  0  0  0  0  0  0  0
  133.0759  134.5386  161.4546 C   0  0  0  0  0  0  0  0  0  0  0  0
  130.2488  128.1908  159.9066 H   0  0  0  0  0  0  0  0  0  0  0  0
  128.7992  129.1821  159.2625 H   0  0  0  0  0  0  0  0  0  0  0  0
  131.7475  129.9619  159.2594 H   0  0  0  0  0  0  0  0  0  0  0  0
  129.0962  131.3752  158.2691 H   0  0  0  0  0  0  0  0  0  0  0  0
  132.0444  132.1552  158.2665 H   0  0  0  0  0  0  0  0  0  0  0  0
  129.9329  133.2328  156.5108 H   0  0  0  0  0  0  0  0  0  0  0  0
  131.2621  134.1820  157.2184 H   0  0  0  0  0  0  0  0  0  0  0  0
  128.5713  134.2816  158.0705 H   0  0  0  0  0  0  0  0  0  0  0  0
  129.3325  135.8547  161.0676 H   0  0  0  0  0  0  0  0  0  0  0  0
  127.6880  133.1561  161.7317 H   0  0  0  0  0  0  0  0  0  0  0  0
  128.0657  132.7603  160.0356 H   0  0  0  0  0  0  0  0  0  0  0  0
  125.7536  132.9794  159.3831 H   0  0  0  0  0  0  0  0  0  0  0  0
  125.7729  131.9748  160.8514 H   0  0  0  0  0  0  0  0  0  0  0  0
  124.8066  135.7470  161.9590 H   0  0  0  0  0  0  0  0  0  0  0  0
  127.3344  135.5596  162.3931 H   0  0  0  0  0  0  0  0  0  0  0  0
  126.8112  136.6978  161.1313 H   0  0  0  0  0  0  0  0  0  0  0  0
  131.4330  135.9347  161.3599 H   0  0  0  0  0  0  0  0  0  0  0  0
  129.7321  134.2778  162.2052 H   0  0  0  0  0  0  0  0  0  0  0  0
  131.0304  133.0633  162.3312 H   0  0  0  0  0  0  0  0  0  0  0  0
  132.1593  134.9825  166.0066 H   0  0  0  0  0  0  0  0  0  0  0  0
  136.2419  135.1212  164.7771 H   0  0  0  0  0  0  0  0  0  0  0  0
  135.5476  134.8210  162.4383 H   0  0  0  0  0  0  0  0  0  0  0  0
  133.2621  133.5047  161.1641 H   0  0  0  0  0  0  0  0  0  0  0  0
  133.6715  135.2033  160.8289 H   0  0  0  0  0  0  0  0  0  0  0  0
  1  2  2  0
  1 30  1  0
  1 31  1  0
  2  3  1  0
  2 32  1  0
  3  4  2  0
  3 33  1  0
  4  5  1  0
  4 34  1  0
  5  6  1  0
  5 35  1  0
  5 36  1  0
  6 37  1  0
  7  6  1  0
  7  8  1  0
  7 17  2  0
  8  9  1  0
  8 38  1  0
  9 10  1  6
  9 16  1  0
  9 11  1  0
 11 12  1  0
 11 39  1  0
 11 40  1  0
 12 13  1  0
 12 41  1  0
 12 42  1  0
 13 14  2  0
 13 15  1  0
 15 16  1  0
 15 43  1  0
 16 44  1  0
 16 45  1  0
 17 18  1  0
 17 19  1  0
 19 29  1  0
 19 20  1  0
 19 46  1  6
 20 21  1  0
 20 47  1  0
 20 48  1  0
 21 22  1  0
 22 28  2  0
 22 23  1  0
 23 24  2  0
 23 49  1  0
 24 25  1  0
 24 26  1  0
 26 27  2  0
 26 50  1  0
 27 28  1  0
 27 51  1  0
 28 29  1  0
 29 52  1  0
 29 53  1  0
M  CHG  1  17   1
M  END
>  <DOCK_score>  (1) 
-42.755665

>  <SMILES>  (1) 
C=C/C=C/CNC(N[C@H]1CCC(=O)NC1)=[NH+]C1COc2cc(F)ccc2C1

$$$$
