C[N@@H+]1CCCC[C@H]1C(=O)NC1C=C(c2ccc(Nc3cccc4ccccc34)cc2)CCC1
     RDKit          3D

 67 71  0  0  1  0  0  0  0  0999 V2000
  129.3522  136.7385  158.8966 C   0  0  0  0  0  0  0  0  0  0  0  0
  130.2644  135.5882  158.8431 N   0  0  2  0  0  0  0  0  0  0  0  0
  131.0925  135.8420  158.3255 H   0  0  0  0  0  0  0  0  0  0  0  0
  129.5956  134.4660  158.1739 C   0  0  0  0  0  0  0  0  0  0  0  0
  130.5684  133.2921  158.0431 C   0  0  0  0  0  0  0  0  0  0  0  0
  131.0255  132.8572  159.4385 C   0  0  0  0  0  0  0  0  0  0  0  0
  131.6547  134.0554  160.1553 C   0  0  0  0  0  0  0  0  0  0  0  0
  130.6416  135.2010  160.2078 C   0  0  1  0  0  0  0  0  0  0  0  0
  129.7541  134.8759  160.7507 H   0  0  0  0  0  0  0  0  0  0  0  0
  131.2565  136.3825  160.9127 C   0  0  0  0  0  0  0  0  0  0  0  0
  130.7482  136.8166  161.9247 O   0  0  0  0  0  0  0  0  0  0  0  0
  132.3712  136.9568  160.4185 N   0  0  0  0  0  0  0  0  0  0  0  0
  132.9690  138.1054  161.1039 C   0  0  1  0  0  0  0  0  0  0  0  0
  133.9636  137.6148  162.1152 C   0  0  0  0  0  0  0  0  0  0  0  0
  135.1385  138.1644  162.3101 C   0  0  0  0  0  0  0  0  0  0  0  0
  136.0126  137.5859  163.3514 C   0  0  0  0  0  0  0  0  0  0  0  0
  135.9427  138.0566  164.6640 C   0  0  0  0  0  0  0  0  0  0  0  0
  136.7595  137.5155  165.6329 C   0  0  0  0  0  0  0  0  0  0  0  0
  137.6533  136.5019  165.3042 C   0  0  0  0  0  0  0  0  0  0  0  0
  138.4798  135.9565  166.2874 N   0  0  0  0  0  0  0  0  0  0  0  0
  138.8958  136.7405  167.3614 C   0  0  0  0  0  0  0  0  0  0  0  0
  139.6302  137.8872  167.1428 C   0  0  0  0  0  0  0  0  0  0  0  0
  140.0499  138.6770  168.2085 C   0  0  0  0  0  0  0  0  0  0  0  0
  139.7498  138.3411  169.4938 C   0  0  0  0  0  0  0  0  0  0  0  0
  139.0039  137.1803  169.7600 C   0  0  0  0  0  0  0  0  0  0  0  0
  138.6792  136.8091  171.0765 C   0  0  0  0  0  0  0  0  0  0  0  0
  137.9542  135.6787  171.2982 C   0  0  0  0  0  0  0  0  0  0  0  0
  137.5276  134.8811  170.2383 C   0  0  0  0  0  0  0  0  0  0  0  0
  137.8243  135.2095  168.9507 C   0  0  0  0  0  0  0  0  0  0  0  0
  138.5699  136.3681  168.6834 C   0  0  0  0  0  0  0  0  0  0  0  0
  137.7289  136.0349  163.9965 C   0  0  0  0  0  0  0  0  0  0  0  0
  136.9105  136.5681  163.0246 C   0  0  0  0  0  0  0  0  0  0  0  0
  135.6495  139.3426  161.5334 C   0  0  0  0  0  0  0  0  0  0  0  0
  134.4908  140.0525  160.8301 C   0  0  0  0  0  0  0  0  0  0  0  0
  133.6624  139.0036  160.0777 C   0  0  0  0  0  0  0  0  0  0  0  0
  129.8298  137.5560  159.4367 H   0  0  0  0  0  0  0  0  0  0  0  0
  129.1156  137.0619  157.8829 H   0  0  0  0  0  0  0  0  0  0  0  0
  128.4346  136.4510  159.4098 H   0  0  0  0  0  0  0  0  0  0  0  0
  129.2680  134.7780  157.1822 H   0  0  0  0  0  0  0  0  0  0  0  0
  128.7306  134.1569  158.7607 H   0  0  0  0  0  0  0  0  0  0  0  0
  131.4337  133.6001  157.4562 H   0  0  0  0  0  0  0  0  0  0  0  0
  130.0694  132.4594  157.5476 H   0  0  0  0  0  0  0  0  0  0  0  0
  131.7617  132.0586  159.3484 H   0  0  0  0  0  0  0  0  0  0  0  0
  130.1683  132.5000  160.0093 H   0  0  0  0  0  0  0  0  0  0  0  0
  132.5426  134.3792  159.6122 H   0  0  0  0  0  0  0  0  0  0  0  0
  131.9328  133.7686  161.1695 H   0  0  0  0  0  0  0  0  0  0  0  0
  132.7776  136.6095  159.6091 H   0  0  0  0  0  0  0  0  0  0  0  0
  132.1851  138.6708  161.6080 H   0  0  0  0  0  0  0  0  0  0  0  0
  133.6947  136.7618  162.7206 H   0  0  0  0  0  0  0  0  0  0  0  0
  135.2489  138.8436  164.9198 H   0  0  0  0  0  0  0  0  0  0  0  0
  136.7058  137.8791  166.6485 H   0  0  0  0  0  0  0  0  0  0  0  0
  138.7648  135.0316  166.2229 H   0  0  0  0  0  0  0  0  0  0  0  0
  139.8814  138.1759  166.1328 H   0  0  0  0  0  0  0  0  0  0  0  0
  140.6236  139.5709  168.0135 H   0  0  0  0  0  0  0  0  0  0  0  0
  140.0813  138.9688  170.3078 H   0  0  0  0  0  0  0  0  0  0  0  0
  139.0032  137.4180  171.9076 H   0  0  0  0  0  0  0  0  0  0  0  0
  137.7065  135.3958  172.3105 H   0  0  0  0  0  0  0  0  0  0  0  0
  136.9536  133.9889  170.4413 H   0  0  0  0  0  0  0  0  0  0  0  0
  137.4875  134.5817  168.1390 H   0  0  0  0  0  0  0  0  0  0  0  0
  138.4269  135.2505  163.7433 H   0  0  0  0  0  0  0  0  0  0  0  0
  136.9666  136.2018  162.0100 H   0  0  0  0  0  0  0  0  0  0  0  0
  136.1401  140.0386  162.2138 H   0  0  0  0  0  0  0  0  0  0  0  0
  136.3687  139.0003  160.7891 H   0  0  0  0  0  0  0  0  0  0  0  0
  133.8647  140.5522  161.5692 H   0  0  0  0  0  0  0  0  0  0  0  0
  134.8837  140.7865  160.1266 H   0  0  0  0  0  0  0  0  0  0  0  0
  132.9138  139.5014  159.4613 H   0  0  0  0  0  0  0  0  0  0  0  0
  134.3181  138.4020  159.4480 H   0  0  0  0  0  0  0  0  0  0  0  0
  1  2  1  0
  1 36  1  0
  1 37  1  0
  1 38  1  0
  2  3  1  6
  2  8  1  0
  2  4  1  0
  4  5  1  0
  4 39  1  0
  4 40  1  0
  5  6  1  0
  5 41  1  0
  5 42  1  0
  6  7  1  0
  6 43  1  0
  6 44  1  0
  7  8  1  0
  7 45  1  0
  7 46  1  0
  8  9  1  1
  8 10  1  0
 10 11  2  0
 10 12  1  0
 12 13  1  0
 12 47  1  0
 13 35  1  0
 13 14  1  0
 13 48  1  1
 14 15  2  0
 14 49  1  0
 15 16  1  0
 15 33  1  0
 16 32  1  0
 16 17  2  0
 17 18  1  0
 17 50  1  0
 18 19  2  0
 18 51  1  0
 19 20  1  0
 19 31  1  0
 20 21  1  0
 20 52  1  0
 21 30  1  0
 21 22  2  0
 22 23  1  0
 22 53  1  0
 23 24  2  0
 23 54  1  0
 24 25  1  0
 24 55  1  0
 25 30  2  0
 25 26  1  0
 26 27  2  0
 26 56  1  0
 27 28  1  0
 27 57  1  0
 28 29  2  0
 28 58  1  0
 29 30  1  0
 29 59  1  0
 31 32  2  0
 31 60  1  0
 32 61  1  0
 33 34  1  0
 33 62  1  0
 33 63  1  0
 34 35  1  0
 34 64  1  0
 34 65  1  0
 35 66  1  0
 35 67  1  0
M  CHG  1   2   1
M  END
>  <DOCK_score>  (1) 
-56.307758

>  <SMILES>  (1) 
C[N@@H+]1CCCC[C@H]1C(=O)NC1C=C(c2ccc(Nc3cccc4ccccc34)cc2)CCC1

$$$$
