O=[N+]([O-])c1ccc(-c2c[nH]c(N[C@H](c3ccccc3)c3cccc4ccccc34)[nH+]2)cc1
     RDKit          3D

 53 57  0  0  1  0  0  0  0  0999 V2000
  132.0832  128.2935  152.6343 O   0  0  0  0  0  0  0  0  0  0  0  0
  131.4670  129.3312  152.4690 N   0  0  0  0  0  0  0  0  0  0  0  0
  131.1444  129.6757  151.3464 O   0  0  0  0  0  0  0  0  0  0  0  0
  131.1099  130.1732  153.6331 C   0  0  0  0  0  0  0  0  0  0  0  0
  130.4096  131.3509  153.4425 C   0  0  0  0  0  0  0  0  0  0  0  0
  130.0739  132.1399  154.5239 C   0  0  0  0  0  0  0  0  0  0  0  0
  130.4419  131.7481  155.8098 C   0  0  0  0  0  0  0  0  0  0  0  0
  130.0840  132.5919  156.9761 C   0  0  0  0  0  0  0  0  0  0  0  0
  129.3126  132.2162  158.0262 C   0  0  0  0  0  0  0  0  0  0  0  0
  129.2378  133.2959  158.8724 N   0  0  0  0  0  0  0  0  0  0  0  0
  128.7551  133.3347  159.7128 H   0  0  0  0  0  0  0  0  0  0  0  0
  129.9662  134.3008  158.3139 C   0  0  0  0  0  0  0  0  0  0  0  0
  130.1446  135.5631  158.8533 N   0  0  0  0  0  0  0  0  0  0  0  0
  129.5208  135.9078  160.1333 C   0  0  2  0  0  0  0  0  0  0  0  0
  129.8879  135.2358  160.9090 H   0  0  0  0  0  0  0  0  0  0  0  0
  128.0247  135.7699  160.0161 C   0  0  0  0  0  0  0  0  0  0  0  0
  127.2738  135.4218  161.1234 C   0  0  0  0  0  0  0  0  0  0  0  0
  125.9011  135.2990  161.0168 C   0  0  0  0  0  0  0  0  0  0  0  0
  125.2800  135.5162  159.8012 C   0  0  0  0  0  0  0  0  0  0  0  0
  126.0314  135.8596  158.6929 C   0  0  0  0  0  0  0  0  0  0  0  0
  127.4037  135.9862  158.8002 C   0  0  0  0  0  0  0  0  0  0  0  0
  129.8676  137.3292  160.4945 C   0  0  0  0  0  0  0  0  0  0  0  0
  130.0890  138.2493  159.5160 C   0  0  0  0  0  0  0  0  0  0  0  0
  130.4109  139.5677  159.8307 C   0  0  0  0  0  0  0  0  0  0  0  0
  130.5139  139.9742  161.1259 C   0  0  0  0  0  0  0  0  0  0  0  0
  130.2924  139.0528  162.1632 C   0  0  0  0  0  0  0  0  0  0  0  0
  130.3884  139.4353  163.5122 C   0  0  0  0  0  0  0  0  0  0  0  0
  130.1661  138.5157  164.4904 C   0  0  0  0  0  0  0  0  0  0  0  0
  129.8443  137.1965  164.1755 C   0  0  0  0  0  0  0  0  0  0  0  0
  129.7421  136.7900  162.8807 C   0  0  0  0  0  0  0  0  0  0  0  0
  129.9643  137.7114  161.8430 C   0  0  0  0  0  0  0  0  0  0  0  0
  130.4663  133.8780  157.1785 N   0  0  0  0  0  0  0  0  0  0  0  0
  131.0225  134.4003  156.5797 H   0  0  0  0  0  0  0  0  0  0  0  0
  131.1525  130.5635  155.9954 C   0  0  0  0  0  0  0  0  0  0  0  0
  131.4774  129.7793  154.9072 C   0  0  0  0  0  0  0  0  0  0  0  0
  130.1252  131.6535  152.4456 H   0  0  0  0  0  0  0  0  0  0  0  0
  129.5268  133.0589  154.3741 H   0  0  0  0  0  0  0  0  0  0  0  0
  128.8462  131.2528  158.1698 H   0  0  0  0  0  0  0  0  0  0  0  0
  130.6828  136.2196  158.3837 H   0  0  0  0  0  0  0  0  0  0  0  0
  127.7595  135.2484  162.0724 H   0  0  0  0  0  0  0  0  0  0  0  0
  125.3142  135.0303  161.8827 H   0  0  0  0  0  0  0  0  0  0  0  0
  124.2079  135.4170  159.7171 H   0  0  0  0  0  0  0  0  0  0  0  0
  125.5461  136.0290  157.7429 H   0  0  0  0  0  0  0  0  0  0  0  0
  127.9907  136.2541  157.9342 H   0  0  0  0  0  0  0  0  0  0  0  0
  130.0136  137.9529  158.4803 H   0  0  0  0  0  0  0  0  0  0  0  0
  130.5818  140.2780  159.0353 H   0  0  0  0  0  0  0  0  0  0  0  0
  130.7691  140.9983  161.3548 H   0  0  0  0  0  0  0  0  0  0  0  0
  130.6376  140.4537  163.7712 H   0  0  0  0  0  0  0  0  0  0  0  0
  130.2405  138.8122  165.5262 H   0  0  0  0  0  0  0  0  0  0  0  0
  129.6730  136.4865  164.9711 H   0  0  0  0  0  0  0  0  0  0  0  0
  129.4912  135.7647  162.6519 H   0  0  0  0  0  0  0  0  0  0  0  0
  131.4440  130.2575  156.9892 H   0  0  0  0  0  0  0  0  0  0  0  0
  132.0235  128.8586  155.0503 H   0  0  0  0  0  0  0  0  0  0  0  0
  1  2  2  0
  2  3  1  0
  2  4  1  0
  4 35  2  0
  4  5  1  0
  5  6  2  0
  5 36  1  0
  6  7  1  0
  6 37  1  0
  7  8  1  0
  7 34  2  0
  8 32  1  0
  8  9  2  0
  9 10  1  0
  9 38  1  0
 10 11  1  0
 10 12  1  0
 12 13  1  0
 12 32  2  0
 13 14  1  0
 13 39  1  0
 14 15  1  1
 14 16  1  0
 14 22  1  0
 16 21  1  0
 16 17  2  0
 17 18  1  0
 17 40  1  0
 18 19  2  0
 18 41  1  0
 19 20  1  0
 19 42  1  0
 20 21  2  0
 20 43  1  0
 21 44  1  0
 22 31  1  0
 22 23  2  0
 23 24  1  0
 23 45  1  0
 24 25  2  0
 24 46  1  0
 25 26  1  0
 25 47  1  0
 26 31  2  0
 26 27  1  0
 27 28  2  0
 27 48  1  0
 28 29  1  0
 28 49  1  0
 29 30  2  0
 29 50  1  0
 30 31  1  0
 30 51  1  0
 32 33  1  0
 34 35  1  0
 34 52  1  0
 35 53  1  0
M  CHG  3   2   1   3  -1  32   1
M  END
>  <DOCK_score>  (1) 
-56.137875

>  <SMILES>  (1) 
O=[N+]([O-])c1ccc(-c2c[nH]c(N[C@H](c3ccccc3)c3cccc4ccccc34)[nH+]2)cc1

$$$$
