Clc1c(-c2cccc3cccnc23)cccc1N1CC[NH+]([C@@H](CNC2=CCC2)c2ccccc2)CC1
     RDKit          3D

 68 73  0  0  1  0  0  0  0  0999 V2000
  133.5167  137.1585  164.0376 Cl  0  0  0  0  0  0  0  0  0  0  0  0
  134.3491  137.9166  162.7162 C   0  0  0  0  0  0  0  0  0  0  0  0
  135.3986  138.8003  162.9652 C   0  0  0  0  0  0  0  0  0  0  0  0
  135.8070  139.0953  164.3583 C   0  0  0  0  0  0  0  0  0  0  0  0
  135.2261  140.1438  165.0490 C   0  0  0  0  0  0  0  0  0  0  0  0
  135.6019  140.4292  166.3565 C   0  0  0  0  0  0  0  0  0  0  0  0
  136.5509  139.6862  166.9925 C   0  0  0  0  0  0  0  0  0  0  0  0
  137.1656  138.6134  166.3271 C   0  0  0  0  0  0  0  0  0  0  0  0
  138.1492  137.8284  166.9590 C   0  0  0  0  0  0  0  0  0  0  0  0
  138.7045  136.7994  166.2528 C   0  0  0  0  0  0  0  0  0  0  0  0
  138.2938  136.5532  164.9448 C   0  0  0  0  0  0  0  0  0  0  0  0
  137.3776  137.2875  164.3602 N   0  0  0  0  0  0  0  0  0  0  0  0
  136.7958  138.3070  164.9949 C   0  0  0  0  0  0  0  0  0  0  0  0
  136.0591  139.4100  161.8985 C   0  0  0  0  0  0  0  0  0  0  0  0
  135.6804  139.1302  160.6009 C   0  0  0  0  0  0  0  0  0  0  0  0
  134.6401  138.2544  160.3530 C   0  0  0  0  0  0  0  0  0  0  0  0
  133.9720  137.6457  161.4086 C   0  0  0  0  0  0  0  0  0  0  0  0
  132.9210  136.7604  161.1532 N   0  0  0  0  0  0  0  0  0  0  0  0
  133.3954  135.5760  160.4236 C   0  0  0  0  0  0  0  0  0  0  0  0
  132.2293  134.6070  160.2168 C   0  0  0  0  0  0  0  0  0  0  0  0
  131.1646  135.2767  159.4582 N   0  0  0  0  0  0  0  0  0  0  0  0
  131.5266  135.5783  158.5658 H   0  0  0  0  0  0  0  0  0  0  0  0
  130.0530  134.3406  159.2442 C   0  0  1  0  0  0  0  0  0  0  0  0
  129.6623  134.0141  160.2079 H   0  0  0  0  0  0  0  0  0  0  0  0
  128.9439  135.0379  158.4539 C   0  0  0  0  0  0  0  0  0  0  0  0
  128.1502  135.8728  159.3590 N   0  0  0  0  0  0  0  0  0  0  0  0
  127.4847  135.2951  160.4328 C   0  0  0  0  0  0  0  0  0  0  0  0
  127.3611  134.0690  160.9078 C   0  0  0  0  0  0  0  0  0  0  0  0
  126.4670  134.3790  162.0817 C   0  0  0  0  0  0  0  0  0  0  0  0
  126.5963  135.8043  161.5393 C   0  0  0  0  0  0  0  0  0  0  0  0
  130.5453  133.1446  158.4706 C   0  0  0  0  0  0  0  0  0  0  0  0
  130.4971  133.1475  157.0891 C   0  0  0  0  0  0  0  0  0  0  0  0
  130.9527  132.0523  156.3794 C   0  0  0  0  0  0  0  0  0  0  0  0
  131.4486  130.9505  157.0517 C   0  0  0  0  0  0  0  0  0  0  0  0
  131.4910  130.9454  158.4332 C   0  0  0  0  0  0  0  0  0  0  0  0
  131.0396  132.0424  159.1427 C   0  0  0  0  0  0  0  0  0  0  0  0
  130.6842  136.4431  160.2107 C   0  0  0  0  0  0  0  0  0  0  0  0
  131.8376  137.4274  160.4175 C   0  0  0  0  0  0  0  0  0  0  0  0
  134.4720  140.7479  164.5664 H   0  0  0  0  0  0  0  0  0  0  0  0
  135.1349  141.2526  166.8763 H   0  0  0  0  0  0  0  0  0  0  0  0
  136.8304  139.9229  168.0084 H   0  0  0  0  0  0  0  0  0  0  0  0
  138.4554  138.0337  167.9742 H   0  0  0  0  0  0  0  0  0  0  0  0
  139.4613  136.1778  166.7081 H   0  0  0  0  0  0  0  0  0  0  0  0
  138.7382  135.7339  164.3995 H   0  0  0  0  0  0  0  0  0  0  0  0
  136.8695  140.0983  162.0878 H   0  0  0  0  0  0  0  0  0  0  0  0
  136.1960  139.6005  159.7766 H   0  0  0  0  0  0  0  0  0  0  0  0
  134.3453  138.0430  159.3358 H   0  0  0  0  0  0  0  0  0  0  0  0
  133.7918  135.8802  159.4548 H   0  0  0  0  0  0  0  0  0  0  0  0
  134.1794  135.0840  160.9994 H   0  0  0  0  0  0  0  0  0  0  0  0
  131.8420  134.2924  161.1859 H   0  0  0  0  0  0  0  0  0  0  0  0
  132.5759  133.7343  159.6633 H   0  0  0  0  0  0  0  0  0  0  0  0
  129.3878  135.6625  157.6788 H   0  0  0  0  0  0  0  0  0  0  0  0
  128.3003  134.2888  157.9926 H   0  0  0  0  0  0  0  0  0  0  0  0
  128.0894  136.8292  159.2085 H   0  0  0  0  0  0  0  0  0  0  0  0
  127.7734  133.1326  160.5621 H   0  0  0  0  0  0  0  0  0  0  0  0
  126.9290  134.2245  163.0568 H   0  0  0  0  0  0  0  0  0  0  0  0
  125.4651  133.9568  162.0046 H   0  0  0  0  0  0  0  0  0  0  0  0
  127.1090  136.4792  162.2247 H   0  0  0  0  0  0  0  0  0  0  0  0
  125.6531  136.2139  161.1777 H   0  0  0  0  0  0  0  0  0  0  0  0
  130.1068  134.0068  156.5641 H   0  0  0  0  0  0  0  0  0  0  0  0
  130.9192  132.0562  155.2998 H   0  0  0  0  0  0  0  0  0  0  0  0
  131.8009  130.0934  156.4969 H   0  0  0  0  0  0  0  0  0  0  0  0
  131.8780  130.0846  158.9582 H   0  0  0  0  0  0  0  0  0  0  0  0
  131.0732  132.0385  160.2221 H   0  0  0  0  0  0  0  0  0  0  0  0
  130.3049  136.1191  161.1799 H   0  0  0  0  0  0  0  0  0  0  0  0
  129.8854  136.9316  159.6527 H   0  0  0  0  0  0  0  0  0  0  0  0
  131.4849  138.2860  160.9888 H   0  0  0  0  0  0  0  0  0  0  0  0
  132.2083  137.7625  159.4488 H   0  0  0  0  0  0  0  0  0  0  0  0
  1  2  1  0
  2 17  2  0
  2  3  1  0
  3  4  1  0
  3 14  2  0
  4 13  1  0
  4  5  2  0
  5  6  1  0
  5 39  1  0
  6  7  2  0
  6 40  1  0
  7  8  1  0
  7 41  1  0
  8 13  2  0
  8  9  1  0
  9 10  2  0
  9 42  1  0
 10 11  1  0
 10 43  1  0
 11 12  2  0
 11 44  1  0
 12 13  1  0
 14 15  1  0
 14 45  1  0
 15 16  2  0
 15 46  1  0
 16 17  1  0
 16 47  1  0
 17 18  1  0
 18 38  1  0
 18 19  1  0
 19 20  1  0
 19 48  1  0
 19 49  1  0
 20 21  1  0
 20 50  1  0
 20 51  1  0
 21 22  1  0
 21 23  1  0
 21 37  1  0
 23 24  1  1
 23 25  1  0
 23 31  1  0
 25 26  1  0
 25 52  1  0
 25 53  1  0
 26 27  1  0
 26 54  1  0
 27 30  1  0
 27 28  2  0
 28 29  1  0
 28 55  1  0
 29 30  1  0
 29 56  1  0
 29 57  1  0
 30 58  1  0
 30 59  1  0
 31 36  1  0
 31 32  2  0
 32 33  1  0
 32 60  1  0
 33 34  2  0
 33 61  1  0
 34 35  1  0
 34 62  1  0
 35 36  2  0
 35 63  1  0
 36 64  1  0
 37 38  1  0
 37 65  1  0
 37 66  1  0
 38 67  1  0
 38 68  1  0
M  CHG  1  21   1
M  END
>  <DOCK_score>  (1) 
-56.945293

>  <SMILES>  (1) 
Clc1c(-c2cccc3cccnc23)cccc1N1CC[NH+]([C@@H](CNC2=CCC2)c2ccccc2)CC1

$$$$
