O=C1CC[C@H](NC(N[C@H]2CCC(=O)NC2)=[NH+][C@H]2COc3cc(Cl)ccc3C2)CN1
     RDKit          3D

 56 59  0  0  1  0  0  0  0  0999 V2000
  124.0523  133.6195  161.4677 O   0  0  0  0  0  0  0  0  0  0  0  0
  125.2166  133.8545  161.2227 C   0  0  0  0  0  0  0  0  0  0  0  0
  126.1075  132.7081  160.8386 C   0  0  0  0  0  0  0  0  0  0  0  0
  127.5751  133.1132  160.9973 C   0  0  0  0  0  0  0  0  0  0  0  0
  127.7814  134.4669  160.3072 C   0  0  2  0  0  0  0  0  0  0  0  0
  127.4060  134.4174  159.2850 H   0  0  0  0  0  0  0  0  0  0  0  0
  129.2085  134.7979  160.2911 N   0  0  0  0  0  0  0  0  0  0  0  0
  129.9944  134.4009  159.2351 C   0  0  0  0  0  0  0  0  0  0  0  0
  129.4409  133.6936  158.1943 N   0  0  0  0  0  0  0  0  0  0  0  0
  130.2558  132.7332  157.4461 C   0  0  1  0  0  0  0  0  0  0  0  0
  131.2966  133.0569  157.4483 H   0  0  0  0  0  0  0  0  0  0  0  0
  130.1463  131.3487  158.0963 C   0  0  0  0  0  0  0  0  0  0  0  0
  131.1436  130.4118  157.4102 C   0  0  0  0  0  0  0  0  0  0  0  0
  131.0027  130.5192  155.9190 C   0  0  0  0  0  0  0  0  0  0  0  0
  131.4698  129.6347  155.2331 O   0  0  0  0  0  0  0  0  0  0  0  0
  130.3920  131.5353  155.3085 N   0  0  0  0  0  0  0  0  0  0  0  0
  129.7495  132.6430  156.0060 C   0  0  0  0  0  0  0  0  0  0  0  0
  131.2641  134.6955  159.2208 N   0  0  0  0  0  0  0  0  0  0  0  0
  131.7218  134.8274  158.3759 H   0  0  0  0  0  0  0  0  0  0  0  0
  131.9998  134.8270  160.4807 C   0  0  1  0  0  0  0  0  0  0  0  0
  131.3279  134.6455  161.3197 H   0  0  0  0  0  0  0  0  0  0  0  0
  133.1531  133.8159  160.5140 C   0  0  0  0  0  0  0  0  0  0  0  0
  133.7863  133.8970  161.7917 O   0  0  0  0  0  0  0  0  0  0  0  0
  134.1289  135.1279  162.2531 C   0  0  0  0  0  0  0  0  0  0  0  0
  135.0506  135.2144  163.2917 C   0  0  0  0  0  0  0  0  0  0  0  0
  135.4174  136.4470  163.7943 C   0  0  0  0  0  0  0  0  0  0  0  0
  136.5676  136.5498  165.0903 Cl  0  0  0  0  0  0  0  0  0  0  0  0
  134.8669  137.6006  163.2635 C   0  0  0  0  0  0  0  0  0  0  0  0
  133.9534  137.5175  162.2314 C   0  0  0  0  0  0  0  0  0  0  0  0
  133.5835  136.2836  161.7223 C   0  0  0  0  0  0  0  0  0  0  0  0
  132.5909  136.2348  160.5883 C   0  0  0  0  0  0  0  0  0  0  0  0
  127.0150  135.5383  161.0838 C   0  0  0  0  0  0  0  0  0  0  0  0
  125.6372  135.1171  161.3083 N   0  0  0  0  0  0  0  0  0  0  0  0
  125.9176  132.4339  159.8009 H   0  0  0  0  0  0  0  0  0  0  0  0
  125.8956  131.8549  161.4831 H   0  0  0  0  0  0  0  0  0  0  0  0
  128.2151  132.3631  160.5327 H   0  0  0  0  0  0  0  0  0  0  0  0
  127.8194  133.1999  162.0559 H   0  0  0  0  0  0  0  0  0  0  0  0
  129.5989  135.2971  161.0256 H   0  0  0  0  0  0  0  0  0  0  0  0
  128.5107  133.8302  157.9555 H   0  0  0  0  0  0  0  0  0  0  0  0
  130.3824  131.4222  159.1579 H   0  0  0  0  0  0  0  0  0  0  0  0
  129.1345  130.9632  157.9707 H   0  0  0  0  0  0  0  0  0  0  0  0
  132.1576  130.6880  157.6990 H   0  0  0  0  0  0  0  0  0  0  0  0
  130.9465  129.3850  157.7183 H   0  0  0  0  0  0  0  0  0  0  0  0
  130.3760  131.5396  154.3386 H   0  0  0  0  0  0  0  0  0  0  0  0
  128.6710  132.4848  156.0125 H   0  0  0  0  0  0  0  0  0  0  0  0
  129.9705  133.5758  155.4874 H   0  0  0  0  0  0  0  0  0  0  0  0
  133.8733  134.0547  159.7316 H   0  0  0  0  0  0  0  0  0  0  0  0
  132.7637  132.8095  160.3606 H   0  0  0  0  0  0  0  0  0  0  0  0
  135.4803  134.3143  163.7065 H   0  0  0  0  0  0  0  0  0  0  0  0
  135.1552  138.5657  163.6533 H   0  0  0  0  0  0  0  0  0  0  0  0
  133.5253  138.4191  161.8188 H   0  0  0  0  0  0  0  0  0  0  0  0
  131.7908  136.9508  160.7756 H   0  0  0  0  0  0  0  0  0  0  0  0
  133.0936  136.4893  159.6552 H   0  0  0  0  0  0  0  0  0  0  0  0
  127.5006  135.7025  162.0458 H   0  0  0  0  0  0  0  0  0  0  0  0
  127.0223  136.4690  160.5165 H   0  0  0  0  0  0  0  0  0  0  0  0
  124.9849  135.7993  161.5317 H   0  0  0  0  0  0  0  0  0  0  0  0
  1  2  2  0
  2 33  1  0
  2  3  1  0
  3  4  1  0
  3 34  1  0
  3 35  1  0
  4  5  1  0
  4 36  1  0
  4 37  1  0
  5  6  1  6
  5  7  1  0
  5 32  1  0
  7 38  1  0
  8  7  1  1
  8  9  1  0
  8 18  2  0
  9 10  1  0
  9 39  1  0
 10 11  1  6
 10 17  1  0
 10 12  1  0
 12 13  1  0
 12 40  1  0
 12 41  1  0
 13 14  1  0
 13 42  1  0
 13 43  1  0
 14 15  2  0
 14 16  1  0
 16 17  1  0
 16 44  1  0
 17 45  1  0
 17 46  1  0
 18 19  1  0
 18 20  1  0
 20 21  1  1
 20 31  1  0
 20 22  1  0
 22 23  1  0
 22 47  1  0
 22 48  1  0
 23 24  1  0
 24 30  2  0
 24 25  1  0
 25 26  2  0
 25 49  1  0
 26 27  1  0
 26 28  1  0
 28 29  2  0
 28 50  1  0
 29 30  1  0
 29 51  1  0
 30 31  1  0
 31 52  1  0
 31 53  1  0
 32 33  1  0
 32 54  1  0
 32 55  1  0
 33 56  1  0
M  CHG  1  18   1
M  END
>  <DOCK_score>  (1) 
-44.825203

>  <SMILES>  (1) 
O=C1CC[C@H](NC(N[C@H]2CCC(=O)NC2)=[NH+][C@H]2COc3cc(Cl)ccc3C2)CN1

$$$$
