CCc1ccc(-c2c[nH]c(N[C@@H](CCC3=CCCCC3)c3ccccn3)[nH+]2)cc1
     RDKit          3D

 60 63  0  0  1  0  0  0  0  0999 V2000
  130.5820  128.4661  151.6012 C   0  0  0  0  0  0  0  0  0  0  0  0
  131.6685  129.4798  151.9653 C   0  0  0  0  0  0  0  0  0  0  0  0
  131.2851  130.1925  153.2366 C   0  0  0  0  0  0  0  0  0  0  0  0
  131.6783  129.6796  154.4591 C   0  0  0  0  0  0  0  0  0  0  0  0
  131.3350  130.3309  155.6265 C   0  0  0  0  0  0  0  0  0  0  0  0
  130.5807  131.5016  155.5721 C   0  0  0  0  0  0  0  0  0  0  0  0
  130.2039  132.2032  156.8235 C   0  0  0  0  0  0  0  0  0  0  0  0
  129.4701  131.6847  157.8392 C   0  0  0  0  0  0  0  0  0  0  0  0
  129.3592  132.6672  158.7929 N   0  0  0  0  0  0  0  0  0  0  0  0
  128.8902  132.5963  159.6390 H   0  0  0  0  0  0  0  0  0  0  0  0
  130.0291  133.7584  158.3316 C   0  0  0  0  0  0  0  0  0  0  0  0
  130.1575  134.9661  158.9960 N   0  0  0  0  0  0  0  0  0  0  0  0
  129.1021  135.4171  159.9064 C   0  0  1  0  0  0  0  0  0  0  0  0
  128.9769  134.6881  160.7070 H   0  0  0  0  0  0  0  0  0  0  0  0
  129.4891  136.7709  160.5051 C   0  0  0  0  0  0  0  0  0  0  0  0
  130.4790  136.5571  161.6521 C   0  0  0  0  0  0  0  0  0  0  0  0
  129.8388  135.7022  162.7153 C   0  0  0  0  0  0  0  0  0  0  0  0
  130.4021  134.5741  163.0076 C   0  0  0  0  0  0  0  0  0  0  0  0
  129.8805  133.6156  164.0377 C   0  0  0  0  0  0  0  0  0  0  0  0
  128.8763  134.3191  164.9533 C   0  0  0  0  0  0  0  0  0  0  0  0
  127.8610  135.0646  164.0780 C   0  0  0  0  0  0  0  0  0  0  0  0
  128.5846  136.2090  163.3650 C   0  0  0  0  0  0  0  0  0  0  0  0
  127.8082  135.5555  159.1463 C   0  0  0  0  0  0  0  0  0  0  0  0
  126.6070  135.3526  159.7995 C   0  0  0  0  0  0  0  0  0  0  0  0
  125.4224  135.4829  159.0911 C   0  0  0  0  0  0  0  0  0  0  0  0
  125.4907  135.8138  157.7463 C   0  0  0  0  0  0  0  0  0  0  0  0
  126.7282  136.0014  157.1609 C   0  0  0  0  0  0  0  0  0  0  0  0
  127.8348  135.8742  157.8671 N   0  0  0  0  0  0  0  0  0  0  0  0
  130.5373  133.4753  157.1571 N   0  0  0  0  0  0  0  0  0  0  0  0
  131.0655  134.0796  156.6124 H   0  0  0  0  0  0  0  0  0  0  0  0
  130.1823  132.0111  154.3374 C   0  0  0  0  0  0  0  0  0  0  0  0
  130.5362  131.3545  153.1763 C   0  0  0  0  0  0  0  0  0  0  0  0
  129.6346  128.9849  151.4556 H   0  0  0  0  0  0  0  0  0  0  0  0
  130.8593  127.9507  150.6817 H   0  0  0  0  0  0  0  0  0  0  0  0
  130.4784  127.7400  152.4075 H   0  0  0  0  0  0  0  0  0  0  0  0
  132.6157  128.9616  152.1105 H   0  0  0  0  0  0  0  0  0  0  0  0
  131.7719  130.2065  151.1585 H   0  0  0  0  0  0  0  0  0  0  0  0
  132.2587  128.7697  154.5003 H   0  0  0  0  0  0  0  0  0  0  0  0
  131.6466  129.9320  156.5804 H   0  0  0  0  0  0  0  0  0  0  0  0
  129.0526  130.6899  157.8887 H   0  0  0  0  0  0  0  0  0  0  0  0
  130.9464  135.5135  158.8588 H   0  0  0  0  0  0  0  0  0  0  0  0
  129.9520  137.3892  159.7361 H   0  0  0  0  0  0  0  0  0  0  0  0
  128.5966  137.2692  160.8837 H   0  0  0  0  0  0  0  0  0  0  0  0
  131.3714  136.0588  161.2736 H   0  0  0  0  0  0  0  0  0  0  0  0
  130.7546  137.5216  162.0785 H   0  0  0  0  0  0  0  0  0  0  0  0
  131.3060  134.3076  162.4798 H   0  0  0  0  0  0  0  0  0  0  0  0
  130.7098  133.2366  164.6348 H   0  0  0  0  0  0  0  0  0  0  0  0
  129.3891  132.7825  163.5353 H   0  0  0  0  0  0  0  0  0  0  0  0
  129.3994  135.0295  165.5936 H   0  0  0  0  0  0  0  0  0  0  0  0
  128.3589  133.5833  165.5689 H   0  0  0  0  0  0  0  0  0  0  0  0
  127.0644  135.4679  164.7032 H   0  0  0  0  0  0  0  0  0  0  0  0
  127.4411  134.3805  163.3403 H   0  0  0  0  0  0  0  0  0  0  0  0
  128.8400  136.9821  164.0898 H   0  0  0  0  0  0  0  0  0  0  0  0
  127.9281  136.6302  162.6036 H   0  0  0  0  0  0  0  0  0  0  0  0
  126.5915  135.0963  160.8485 H   0  0  0  0  0  0  0  0  0  0  0  0
  124.4692  135.3306  159.5754 H   0  0  0  0  0  0  0  0  0  0  0  0
  124.5880  135.9240  157.1638 H   0  0  0  0  0  0  0  0  0  0  0  0
  126.7899  136.2593  156.1139 H   0  0  0  0  0  0  0  0  0  0  0  0
  129.5975  132.9179  154.2895 H   0  0  0  0  0  0  0  0  0  0  0  0
  130.2278  131.7481  152.2190 H   0  0  0  0  0  0  0  0  0  0  0  0
  1  2  1  0
  1 33  1  0
  1 34  1  0
  1 35  1  0
  2  3  1  0
  2 36  1  0
  2 37  1  0
  3 32  2  0
  3  4  1  0
  4  5  2  0
  4 38  1  0
  5  6  1  0
  5 39  1  0
  6  7  1  0
  6 31  2  0
  7 29  1  0
  7  8  2  0
  8  9  1  0
  8 40  1  0
  9 10  1  0
  9 11  1  0
 11 12  1  0
 11 29  2  0
 12 13  1  0
 12 41  1  0
 13 14  1  1
 13 15  1  0
 13 23  1  0
 15 16  1  0
 15 42  1  0
 15 43  1  0
 16 17  1  0
 16 44  1  0
 16 45  1  0
 17 22  1  0
 17 18  2  0
 18 19  1  0
 18 46  1  0
 19 20  1  0
 19 47  1  0
 19 48  1  0
 20 21  1  0
 20 49  1  0
 20 50  1  0
 21 22  1  0
 21 51  1  0
 21 52  1  0
 22 53  1  0
 22 54  1  0
 23 28  1  0
 23 24  2  0
 24 25  1  0
 24 55  1  0
 25 26  2  0
 25 56  1  0
 26 27  1  0
 26 57  1  0
 27 28  2  0
 27 58  1  0
 29 30  1  0
 31 32  1  0
 31 59  1  0
 32 60  1  0
M  CHG  1  29   1
M  END
>  <DOCK_score>  (1) 
-58.98748

>  <SMILES>  (1) 
CCc1ccc(-c2c[nH]c(N[C@@H](CCC3=CCCCC3)c3ccccn3)[nH+]2)cc1

$$$$
