N[C@@H]1C[C@@H]1NC(N[C@H]1[C@@H]2CC=CC[C@@H]21)=[NH+][C@@H]1C=C[C@@H](O)[C@H]1O
     RDKit          3D

 47 50  0  0  1  0  0  0  0  0999 V2000
  131.4822  136.5155  161.0326 N   0  0  0  0  0  0  0  0  0  0  0  0
  130.9116  137.4435  160.0472 C   0  0  2  0  0  0  0  0  0  0  0  0
  131.5933  137.7754  159.2640 H   0  0  0  0  0  0  0  0  0  0  0  0
  129.8634  138.4423  160.5416 C   0  0  0  0  0  0  0  0  0  0  0  0
  129.4402  137.2575  159.6709 C   0  0  2  0  0  0  0  0  0  0  0  0
  129.1536  137.4673  158.6404 H   0  0  0  0  0  0  0  0  0  0  0  0
  128.7083  136.1677  160.3211 N   0  0  0  0  0  0  0  0  0  0  0  0
  128.6829  134.9186  159.7473 C   0  0  0  0  0  0  0  0  0  0  0  0
  129.3443  134.6923  158.5634 N   0  0  0  0  0  0  0  0  0  0  0  0
  129.3173  133.3613  157.9520 C   0  0  1  0  0  0  0  0  0  0  0  0
  128.3281  132.9833  157.6935 H   0  0  0  0  0  0  0  0  0  0  0  0
  130.4794  132.9842  157.0312 C   0  0  2  0  0  0  0  0  0  0  0  0
  131.2662  133.7204  156.8669 H   0  0  0  0  0  0  0  0  0  0  0  0
  130.1600  132.0625  155.8434 C   0  0  0  0  0  0  0  0  0  0  0  0
  130.7878  130.6986  156.1390 C   0  0  0  0  0  0  0  0  0  0  0  0
  130.6850  130.1556  157.3265 C   0  0  0  0  0  0  0  0  0  0  0  0
  129.9410  130.8661  158.4305 C   0  0  0  0  0  0  0  0  0  0  0  0
  130.3582  132.3455  158.4270 C   0  0  2  0  0  0  0  0  0  0  0  0
  131.0637  132.6534  159.1987 H   0  0  0  0  0  0  0  0  0  0  0  0
  128.0316  133.9489  160.3256 N   0  0  0  0  0  0  0  0  0  0  0  0
  128.0137  133.0676  159.9207 H   0  0  0  0  0  0  0  0  0  0  0  0
  127.3266  134.1900  161.5870 C   0  0  2  0  0  0  0  0  0  0  0  0
  128.0262  134.5186  162.3555 H   0  0  0  0  0  0  0  0  0  0  0  0
  126.6013  132.9422  162.0342 C   0  0  0  0  0  0  0  0  0  0  0  0
  125.3237  133.0246  161.7803 C   0  0  0  0  0  0  0  0  0  0  0  0
  124.9837  134.3412  161.1214 C   0  0  1  0  0  0  0  0  0  0  0  0
  124.8395  134.2034  160.0499 H   0  0  0  0  0  0  0  0  0  0  0  0
  123.8128  134.9067  161.7139 O   0  0  0  0  0  0  0  0  0  0  0  0
  126.2115  135.2427  161.3881 C   0  0  1  0  0  0  0  0  0  0  0  0
  126.4233  135.8796  160.5292 H   0  0  0  0  0  0  0  0  0  0  0  0
  126.0270  136.0242  162.5702 O   0  0  0  0  0  0  0  0  0  0  0  0
  132.4535  136.7257  161.2075 H   0  0  0  0  0  0  0  0  0  0  0  0
  130.9500  136.5260  161.8898 H   0  0  0  0  0  0  0  0  0  0  0  0
  129.8555  139.4315  160.0838 H   0  0  0  0  0  0  0  0  0  0  0  0
  129.5970  138.4112  161.5981 H   0  0  0  0  0  0  0  0  0  0  0  0
  128.2417  136.3274  161.1563 H   0  0  0  0  0  0  0  0  0  0  0  0
  129.8290  135.4139  158.1331 H   0  0  0  0  0  0  0  0  0  0  0  0
  129.0798  131.9641  155.7365 H   0  0  0  0  0  0  0  0  0  0  0  0
  130.5846  132.4809  154.9309 H   0  0  0  0  0  0  0  0  0  0  0  0
  131.3223  130.1805  155.3567 H   0  0  0  0  0  0  0  0  0  0  0  0
  131.1353  129.1925  157.5167 H   0  0  0  0  0  0  0  0  0  0  0  0
  130.1939  130.4168  159.3907 H   0  0  0  0  0  0  0  0  0  0  0  0
  128.8671  130.7882  158.2613 H   0  0  0  0  0  0  0  0  0  0  0  0
  127.0776  132.0934  162.5023 H   0  0  0  0  0  0  0  0  0  0  0  0
  124.6039  132.2533  162.0112 H   0  0  0  0  0  0  0  0  0  0  0  0
  123.5886  135.7862  161.3800 H   0  0  0  0  0  0  0  0  0  0  0  0
  125.3375  136.6978  162.4928 H   0  0  0  0  0  0  0  0  0  0  0  0
  1  2  1  0
  1 32  1  0
  1 33  1  0
  2  3  1  6
  2  5  1  0
  2  4  1  0
  4  5  1  0
  4 34  1  0
  4 35  1  0
  5  6  1  6
  5  7  1  0
  7 36  1  0
  8  7  1  0
  8  9  1  0
  8 20  2  0
  9 10  1  0
  9 37  1  0
 10 11  1  6
 10 18  1  0
 10 12  1  0
 12 13  1  6
 12 18  1  0
 12 14  1  0
 14 15  1  0
 14 38  1  0
 14 39  1  0
 15 16  2  0
 15 40  1  0
 16 17  1  0
 16 41  1  0
 17 18  1  0
 17 42  1  0
 17 43  1  0
 18 19  1  1
 20 21  1  0
 20 22  1  0
 22 23  1  1
 22 29  1  0
 22 24  1  0
 24 25  2  0
 24 44  1  0
 25 26  1  0
 25 45  1  0
 26 27  1  6
 26 28  1  0
 26 29  1  0
 28 46  1  0
 29 30  1  6
 29 31  1  0
 31 47  1  0
M  CHG  1  20   1
M  END
>  <DOCK_score>  (1) 
-46.759121

>  <SMILES>  (1) 
N[C@@H]1C[C@@H]1NC(N[C@H]1[C@@H]2CC=CC[C@@H]21)=[NH+][C@@H]1C=C[C@@H](O)[C@H]1O

$$$$
