CC=CNc1cccc(F)c1Nc1cccc(-c2cccc(F)c2NC2=[NH+]CCN2)c1NN
     RDKit          3D

 59 62  0  0  0  0  0  0  0  0999 V2000
  131.3537  141.3849  165.3027 C   0  0  0  0  0  0  0  0  0  0  0  0
  131.5211  141.0258  163.8486 C   0  0  0  0  0  0  0  0  0  0  0  0
  132.7307  140.9043  163.3335 C   0  0  0  0  0  0  0  0  0  0  0  0
  132.8849  140.5732  161.9933 N   0  0  0  0  0  0  0  0  0  0  0  0
  134.1673  140.4445  161.4472 C   0  0  0  0  0  0  0  0  0  0  0  0
  135.2197  141.1898  161.9595 C   0  0  0  0  0  0  0  0  0  0  0  0
  136.4843  141.0665  161.4155 C   0  0  0  0  0  0  0  0  0  0  0  0
  136.7077  140.1961  160.3641 C   0  0  0  0  0  0  0  0  0  0  0  0
  135.6658  139.4441  159.8500 C   0  0  0  0  0  0  0  0  0  0  0  0
  135.8877  138.5949  158.8229 F   0  0  0  0  0  0  0  0  0  0  0  0
  134.3920  139.5626  160.3908 C   0  0  0  0  0  0  0  0  0  0  0  0
  133.3349  138.8028  159.8727 N   0  0  0  0  0  0  0  0  0  0  0  0
  132.6437  137.9098  160.6999 C   0  0  0  0  0  0  0  0  0  0  0  0
  133.2961  137.2988  161.7612 C   0  0  0  0  0  0  0  0  0  0  0  0
  132.6173  136.4148  162.5809 C   0  0  0  0  0  0  0  0  0  0  0  0
  131.2857  136.1337  162.3513 C   0  0  0  0  0  0  0  0  0  0  0  0
  130.6153  136.7439  161.2920 C   0  0  0  0  0  0  0  0  0  0  0  0
  129.1835  136.4470  161.0477 C   0  0  0  0  0  0  0  0  0  0  0  0
  128.2349  136.7163  162.0324 C   0  0  0  0  0  0  0  0  0  0  0  0
  126.9023  136.4444  161.7990 C   0  0  0  0  0  0  0  0  0  0  0  0
  126.5032  135.8927  160.5940 C   0  0  0  0  0  0  0  0  0  0  0  0
  127.4357  135.6153  159.6106 C   0  0  0  0  0  0  0  0  0  0  0  0
  127.0391  135.0776  158.4363 F   0  0  0  0  0  0  0  0  0  0  0  0
  128.7795  135.8899  159.8300 C   0  0  0  0  0  0  0  0  0  0  0  0
  129.7251  135.6099  158.8372 N   0  0  0  0  0  0  0  0  0  0  0  0
  129.8858  134.3265  158.3869 C   0  0  0  0  0  0  0  0  0  0  0  0
  129.1802  133.3106  158.8566 N   0  0  0  0  0  0  0  0  0  0  0  0
  128.4999  133.3702  159.5456 H   0  0  0  0  0  0  0  0  0  0  0  0
  129.5881  132.0768  158.1667 C   0  0  0  0  0  0  0  0  0  0  0  0
  130.6869  132.5549  157.1961 C   0  0  0  0  0  0  0  0  0  0  0  0
  130.7630  134.0019  157.4511 N   0  0  0  0  0  0  0  0  0  0  0  0
  131.2995  137.6331  160.4583 C   0  0  0  0  0  0  0  0  0  0  0  0
  130.6368  138.2463  159.3905 N   0  0  0  0  0  0  0  0  0  0  0  0
  130.0324  139.5022  159.8045 N   0  0  0  0  0  0  0  0  0  0  0  0
  131.8198  142.3515  165.4940 H   0  0  0  0  0  0  0  0  0  0  0  0
  130.2921  141.4393  165.5436 H   0  0  0  0  0  0  0  0  0  0  0  0
  131.8284  140.6237  165.9218 H   0  0  0  0  0  0  0  0  0  0  0  0
  130.6514  140.8679  163.2279 H   0  0  0  0  0  0  0  0  0  0  0  0
  133.6003  141.0623  163.9543 H   0  0  0  0  0  0  0  0  0  0  0  0
  132.1039  140.4314  161.4358 H   0  0  0  0  0  0  0  0  0  0  0  0
  135.0495  141.8706  162.7805 H   0  0  0  0  0  0  0  0  0  0  0  0
  137.3006  141.6512  161.8130 H   0  0  0  0  0  0  0  0  0  0  0  0
  137.6979  140.1033  159.9430 H   0  0  0  0  0  0  0  0  0  0  0  0
  133.0822  138.8955  158.9408 H   0  0  0  0  0  0  0  0  0  0  0  0
  134.3380  137.5138  161.9478 H   0  0  0  0  0  0  0  0  0  0  0  0
  133.1319  135.9428  163.4048 H   0  0  0  0  0  0  0  0  0  0  0  0
  130.7615  135.4429  162.9951 H   0  0  0  0  0  0  0  0  0  0  0  0
  128.5421  137.1423  162.9762 H   0  0  0  0  0  0  0  0  0  0  0  0
  126.1683  136.6581  162.5619 H   0  0  0  0  0  0  0  0  0  0  0  0
  125.4591  135.6781  160.4207 H   0  0  0  0  0  0  0  0  0  0  0  0
  130.2666  136.3249  158.4679 H   0  0  0  0  0  0  0  0  0  0  0  0
  128.7514  131.6456  157.6170 H   0  0  0  0  0  0  0  0  0  0  0  0
  129.9911  131.3557  158.8778 H   0  0  0  0  0  0  0  0  0  0  0  0
  130.3974  132.3618  156.1632 H   0  0  0  0  0  0  0  0  0  0  0  0
  131.6387  132.0745  157.4230 H   0  0  0  0  0  0  0  0  0  0  0  0
  131.3621  134.6202  157.0042 H   0  0  0  0  0  0  0  0  0  0  0  0
  131.2607  138.3853  158.6097 H   0  0  0  0  0  0  0  0  0  0  0  0
  129.3395  139.3509  160.5219 H   0  0  0  0  0  0  0  0  0  0  0  0
  130.7353  140.1574  160.1130 H   0  0  0  0  0  0  0  0  0  0  0  0
  1  2  1  0
  1 35  1  0
  1 36  1  0
  1 37  1  0
  2  3  2  0
  2 38  1  0
  3  4  1  0
  3 39  1  0
  4  5  1  0
  4 40  1  0
  5 11  2  0
  5  6  1  0
  6  7  2  0
  6 41  1  0
  7  8  1  0
  7 42  1  0
  8  9  2  0
  8 43  1  0
  9 10  1  0
  9 11  1  0
 11 12  1  0
 12 13  1  0
 12 44  1  0
 13 32  1  0
 13 14  2  0
 14 15  1  0
 14 45  1  0
 15 16  2  0
 15 46  1  0
 16 17  1  0
 16 47  1  0
 17 18  1  0
 17 32  2  0
 18 24  1  0
 18 19  2  0
 19 20  1  0
 19 48  1  0
 20 21  2  0
 20 49  1  0
 21 22  1  0
 21 50  1  0
 22 23  1  0
 22 24  2  0
 24 25  1  0
 25 26  1  0
 25 51  1  0
 26 31  2  0
 26 27  1  0
 27 28  1  0
 27 29  1  0
 29 30  1  0
 29 52  1  0
 29 53  1  0
 30 31  1  0
 30 54  1  0
 30 55  1  0
 31 56  1  0
 32 33  1  0
 33 34  1  0
 33 57  1  0
 34 58  1  0
 34 59  1  0
M  CHG  1  31   1
M  END
>  <DOCK_score>  (1) 
-61.495182

>  <SMILES>  (1) 
CC=CNc1cccc(F)c1Nc1cccc(-c2cccc(F)c2NC2=[NH+]CCN2)c1NN

$$$$
