Cc1ccccc1CNc1cccc(C[NH+]2CCN([C@@H](Cc3ccccc3)C(F)F)CC2)c1
     RDKit          3D

 67 70  0  0  1  0  0  0  0  0999 V2000
  134.3993  137.6866  165.3014 C   0  0  0  0  0  0  0  0  0  0  0  0
  135.6424  136.8348  165.3279 C   0  0  0  0  0  0  0  0  0  0  0  0
  136.5551  136.9757  166.3567 C   0  0  0  0  0  0  0  0  0  0  0  0
  137.6951  136.1947  166.3810 C   0  0  0  0  0  0  0  0  0  0  0  0
  137.9223  135.2717  165.3768 C   0  0  0  0  0  0  0  0  0  0  0  0
  137.0099  135.1308  164.3484 C   0  0  0  0  0  0  0  0  0  0  0  0
  135.8697  135.9125  164.3237 C   0  0  0  0  0  0  0  0  0  0  0  0
  134.8746  135.7586  163.2027 C   0  0  0  0  0  0  0  0  0  0  0  0
  135.2255  136.6689  162.1098 N   0  0  0  0  0  0  0  0  0  0  0  0
  134.2249  137.1896  161.2860 C   0  0  0  0  0  0  0  0  0  0  0  0
  134.4621  138.3407  160.5451 C   0  0  0  0  0  0  0  0  0  0  0  0
  133.4721  138.8503  159.7284 C   0  0  0  0  0  0  0  0  0  0  0  0
  132.2423  138.2218  159.6551 C   0  0  0  0  0  0  0  0  0  0  0  0
  132.0013  137.0788  160.3948 C   0  0  0  0  0  0  0  0  0  0  0  0
  130.6598  136.3974  160.3117 C   0  0  0  0  0  0  0  0  0  0  0  0
  130.6834  135.3993  159.2341 N   0  0  0  0  0  0  0  0  0  0  0  0
  131.1902  135.7694  158.4441 H   0  0  0  0  0  0  0  0  0  0  0  0
  129.3071  135.0847  158.8284 C   0  0  0  0  0  0  0  0  0  0  0  0
  129.3317  134.0590  157.6930 C   0  0  0  0  0  0  0  0  0  0  0  0
  130.0160  132.8416  158.1512 N   0  0  0  0  0  0  0  0  0  0  0  0
  130.0104  131.8095  157.1059 C   0  0  1  0  0  0  0  0  0  0  0  0
  129.0434  131.8069  156.6031 H   0  0  0  0  0  0  0  0  0  0  0  0
  131.1134  132.1082  156.0884 C   0  0  0  0  0  0  0  0  0  0  0  0
  130.8174  131.3849  154.7999 C   0  0  0  0  0  0  0  0  0  0  0  0
  131.3037  130.1068  154.5973 C   0  0  0  0  0  0  0  0  0  0  0  0
  131.0281  129.4415  153.4174 C   0  0  0  0  0  0  0  0  0  0  0  0
  130.2752  130.0583  152.4357 C   0  0  0  0  0  0  0  0  0  0  0  0
  129.7933  131.3383  152.6362 C   0  0  0  0  0  0  0  0  0  0  0  0
  130.0643  132.0016  153.8183 C   0  0  0  0  0  0  0  0  0  0  0  0
  130.2592  130.4397  157.7403 C   0  0  0  0  0  0  0  0  0  0  0  0
  131.6284  130.2776  157.9780 F   0  0  0  0  0  0  0  0  0  0  0  0
  129.5624  130.3526  158.9503 F   0  0  0  0  0  0  0  0  0  0  0  0
  131.3873  133.1453  158.5843 C   0  0  0  0  0  0  0  0  0  0  0  0
  131.3457  134.1785  159.7122 C   0  0  0  0  0  0  0  0  0  0  0  0
  132.9887  136.5609  161.2100 C   0  0  0  0  0  0  0  0  0  0  0  0
  133.5987  137.1773  165.8378 H   0  0  0  0  0  0  0  0  0  0  0  0
  134.6050  138.6443  165.7791 H   0  0  0  0  0  0  0  0  0  0  0  0
  134.0954  137.8537  164.2681 H   0  0  0  0  0  0  0  0  0  0  0  0
  136.3773  137.6961  167.1414 H   0  0  0  0  0  0  0  0  0  0  0  0
  138.4082  136.3048  167.1845 H   0  0  0  0  0  0  0  0  0  0  0  0
  138.8105  134.6578  165.3986 H   0  0  0  0  0  0  0  0  0  0  0  0
  137.1873  134.4100  163.5641 H   0  0  0  0  0  0  0  0  0  0  0  0
  134.8925  134.7311  162.8395 H   0  0  0  0  0  0  0  0  0  0  0  0
  133.8759  135.9975  163.5681 H   0  0  0  0  0  0  0  0  0  0  0  0
  136.1528  136.9102  161.9583 H   0  0  0  0  0  0  0  0  0  0  0  0
  135.4206  138.8345  160.6052 H   0  0  0  0  0  0  0  0  0  0  0  0
  133.6569  139.7432  159.1496 H   0  0  0  0  0  0  0  0  0  0  0  0
  131.4685  138.6246  159.0183 H   0  0  0  0  0  0  0  0  0  0  0  0
  130.4436  135.9040  161.2594 H   0  0  0  0  0  0  0  0  0  0  0  0
  129.8880  137.1386  160.1037 H   0  0  0  0  0  0  0  0  0  0  0  0
  128.7628  134.6730  159.6783 H   0  0  0  0  0  0  0  0  0  0  0  0
  128.8125  135.9937  158.4861 H   0  0  0  0  0  0  0  0  0  0  0  0
  129.8641  134.4756  156.8380 H   0  0  0  0  0  0  0  0  0  0  0  0
  128.3102  133.8143  157.4018 H   0  0  0  0  0  0  0  0  0  0  0  0
  131.1543  133.1813  155.9016 H   0  0  0  0  0  0  0  0  0  0  0  0
  132.0722  131.7712  156.4824 H   0  0  0  0  0  0  0  0  0  0  0  0
  131.8957  129.6268  155.3624 H   0  0  0  0  0  0  0  0  0  0  0  0
  131.4050  128.4416  153.2606 H   0  0  0  0  0  0  0  0  0  0  0  0
  130.0638  129.5401  151.5120 H   0  0  0  0  0  0  0  0  0  0  0  0
  129.2053  131.8202  151.8691 H   0  0  0  0  0  0  0  0  0  0  0  0
  129.6882  133.0018  153.9747 H   0  0  0  0  0  0  0  0  0  0  0  0
  129.9128  129.6579  157.0645 H   0  0  0  0  0  0  0  0  0  0  0  0
  131.9535  133.5468  157.7439 H   0  0  0  0  0  0  0  0  0  0  0  0
  131.8655  132.2340  158.9433 H   0  0  0  0  0  0  0  0  0  0  0  0
  132.3625  134.4157  160.0253 H   0  0  0  0  0  0  0  0  0  0  0  0
  130.7911  133.7715  160.5576 H   0  0  0  0  0  0  0  0  0  0  0  0
  132.8000  135.6681  161.7874 H   0  0  0  0  0  0  0  0  0  0  0  0
  1  2  1  0
  1 36  1  0
  1 37  1  0
  1 38  1  0
  2  7  2  0
  2  3  1  0
  3  4  2  0
  3 39  1  0
  4  5  1  0
  4 40  1  0
  5  6  2  0
  5 41  1  0
  6  7  1  0
  6 42  1  0
  7  8  1  0
  8  9  1  0
  8 43  1  0
  8 44  1  0
  9 10  1  0
  9 45  1  0
 10 35  1  0
 10 11  2  0
 11 12  1  0
 11 46  1  0
 12 13  2  0
 12 47  1  0
 13 14  1  0
 13 48  1  0
 14 15  1  0
 14 35  2  0
 15 16  1  0
 15 49  1  0
 15 50  1  0
 16 17  1  0
 16 34  1  0
 16 18  1  0
 18 19  1  0
 18 51  1  0
 18 52  1  0
 19 20  1  0
 19 53  1  0
 19 54  1  0
 20 21  1  0
 20 33  1  0
 21 22  1  6
 21 23  1  0
 21 30  1  0
 23 24  1  0
 23 55  1  0
 23 56  1  0
 24 29  1  0
 24 25  2  0
 25 26  1  0
 25 57  1  0
 26 27  2  0
 26 58  1  0
 27 28  1  0
 27 59  1  0
 28 29  2  0
 28 60  1  0
 29 61  1  0
 30 31  1  0
 30 32  1  0
 30 62  1  0
 33 34  1  0
 33 63  1  0
 33 64  1  0
 34 65  1  0
 34 66  1  0
 35 67  1  0
M  CHG  1  16   1
M  END
>  <DOCK_score>  (1) 
-58.046577

>  <SMILES>  (1) 
Cc1ccccc1CNc1cccc(C[NH+]2CCN([C@@H](Cc3ccccc3)C(F)F)CC2)c1

$$$$
