Oc1ccc2c(c1)CC[C@@H](NC(NC1CC=CC1)=[NH+][C@@H]1C=C[C@@H](O)[C@H]1O)C2
     RDKit          3D

 55 58  0  0  1  0  0  0  0  0999 V2000
  136.4071  139.1502  160.4492 O   0  0  0  0  0  0  0  0  0  0  0  0
  135.0945  138.7986  160.4451 C   0  0  0  0  0  0  0  0  0  0  0  0
  134.1344  139.6926  159.9931 C   0  0  0  0  0  0  0  0  0  0  0  0
  132.8054  139.3272  159.9959 C   0  0  0  0  0  0  0  0  0  0  0  0
  132.4175  138.0710  160.4461 C   0  0  0  0  0  0  0  0  0  0  0  0
  133.3690  137.1805  160.8911 C   0  0  0  0  0  0  0  0  0  0  0  0
  134.7081  137.5468  160.8920 C   0  0  0  0  0  0  0  0  0  0  0  0
  133.0203  135.8005  161.3843 C   0  0  0  0  0  0  0  0  0  0  0  0
  131.5341  135.7106  161.7242 C   0  0  0  0  0  0  0  0  0  0  0  0
  130.7319  136.2342  160.5270 C   0  0  1  0  0  0  0  0  0  0  0  0
  131.0783  135.7511  159.6134 H   0  0  0  0  0  0  0  0  0  0  0  0
  129.3082  135.9515  160.7253 N   0  0  0  0  0  0  0  0  0  0  0  0
  128.6307  135.1674  159.8220 C   0  0  0  0  0  0  0  0  0  0  0  0
  129.0154  135.1505  158.5021 N   0  0  0  0  0  0  0  0  0  0  0  0
  128.8128  133.9446  157.6954 C   0  0  0  0  0  0  0  0  0  0  0  0
  129.7284  132.7948  158.1762 C   0  0  0  0  0  0  0  0  0  0  0  0
  130.1508  132.0854  156.9107 C   0  0  0  0  0  0  0  0  0  0  0  0
  129.9268  132.8262  155.8595 C   0  0  0  0  0  0  0  0  0  0  0  0
  129.3177  134.1531  156.2488 C   0  0  0  0  0  0  0  0  0  0  0  0
  127.6236  134.4402  160.2166 N   0  0  0  0  0  0  0  0  0  0  0  0
  127.1456  133.8868  159.5792 H   0  0  0  0  0  0  0  0  0  0  0  0
  127.2137  134.4582  161.6230 C   0  0  2  0  0  0  0  0  0  0  0  0
  128.0715  134.6517  162.2670 H   0  0  0  0  0  0  0  0  0  0  0  0
  126.5593  133.1487  161.9974 C   0  0  0  0  0  0  0  0  0  0  0  0
  125.2603  133.2686  162.0426 C   0  0  0  0  0  0  0  0  0  0  0  0
  124.8319  134.6779  161.7058 C   0  0  1  0  0  0  0  0  0  0  0  0
  124.4581  134.7271  160.6831 H   0  0  0  0  0  0  0  0  0  0  0  0
  123.8334  135.1275  162.6240 O   0  0  0  0  0  0  0  0  0  0  0  0
  126.1176  135.5248  161.8509 C   0  0  1  0  0  0  0  0  0  0  0  0
  126.1625  136.3015  161.0875 H   0  0  0  0  0  0  0  0  0  0  0  0
  126.2151  136.0891  163.1602 O   0  0  0  0  0  0  0  0  0  0  0  0
  130.9474  137.7427  160.4244 C   0  0  0  0  0  0  0  0  0  0  0  0
  136.5763  140.0432  160.1189 H   0  0  0  0  0  0  0  0  0  0  0  0
  134.4271  140.6706  159.6406 H   0  0  0  0  0  0  0  0  0  0  0  0
  132.0584  140.0234  159.6442 H   0  0  0  0  0  0  0  0  0  0  0  0
  135.4540  136.8498  161.2446 H   0  0  0  0  0  0  0  0  0  0  0  0
  133.2556  135.0715  160.6089 H   0  0  0  0  0  0  0  0  0  0  0  0
  133.6064  135.5786  162.2761 H   0  0  0  0  0  0  0  0  0  0  0  0
  131.3217  136.3194  162.6030 H   0  0  0  0  0  0  0  0  0  0  0  0
  131.2641  134.6731  161.9215 H   0  0  0  0  0  0  0  0  0  0  0  0
  128.8436  136.3175  161.4942 H   0  0  0  0  0  0  0  0  0  0  0  0
  129.4210  135.9372  158.1050 H   0  0  0  0  0  0  0  0  0  0  0  0
  127.7658  133.6417  157.7047 H   0  0  0  0  0  0  0  0  0  0  0  0
  130.5991  133.1948  158.6959 H   0  0  0  0  0  0  0  0  0  0  0  0
  129.1761  132.1159  158.8257 H   0  0  0  0  0  0  0  0  0  0  0  0
  130.5812  131.0954  156.8798 H   0  0  0  0  0  0  0  0  0  0  0  0
  130.1481  132.5299  154.8448 H   0  0  0  0  0  0  0  0  0  0  0  0
  128.4860  134.3976  155.5879 H   0  0  0  0  0  0  0  0  0  0  0  0
  130.0698  134.9415  156.2190 H   0  0  0  0  0  0  0  0  0  0  0  0
  127.0958  132.2337  162.2005 H   0  0  0  0  0  0  0  0  0  0  0  0
  124.5809  132.4659  162.2886 H   0  0  0  0  0  0  0  0  0  0  0  0
  123.5726  136.0504  162.5005 H   0  0  0  0  0  0  0  0  0  0  0  0
  127.0593  136.5256  163.3383 H   0  0  0  0  0  0  0  0  0  0  0  0
  130.5117  138.1055  159.4935 H   0  0  0  0  0  0  0  0  0  0  0  0
  130.4572  138.2337  161.2652 H   0  0  0  0  0  0  0  0  0  0  0  0
  1  2  1  0
  1 33  1  0
  2  7  2  0
  2  3  1  0
  3  4  2  0
  3 34  1  0
  4  5  1  0
  4 35  1  0
  5 32  1  0
  5  6  2  0
  6  7  1  0
  6  8  1  0
  7 36  1  0
  8  9  1  0
  8 37  1  0
  8 38  1  0
  9 10  1  0
  9 39  1  0
  9 40  1  0
 10 11  1  6
 10 12  1  0
 10 32  1  0
 12 41  1  0
 13 12  1  0
 13 14  1  0
 13 20  2  0
 14 15  1  0
 14 42  1  0
 15 19  1  0
 15 16  1  0
 15 43  1  0
 16 17  1  0
 16 44  1  0
 16 45  1  0
 17 18  2  0
 17 46  1  0
 18 19  1  0
 18 47  1  0
 19 48  1  0
 19 49  1  0
 20 21  1  0
 20 22  1  0
 22 23  1  1
 22 29  1  0
 22 24  1  0
 24 25  2  0
 24 50  1  0
 25 26  1  0
 25 51  1  0
 26 27  1  6
 26 28  1  0
 26 29  1  0
 28 52  1  0
 29 30  1  6
 29 31  1  0
 31 53  1  0
 32 54  1  0
 32 55  1  0
M  CHG  1  20   1
M  END
>  <DOCK_score>  (1) 
-41.55563

>  <SMILES>  (1) 
Oc1ccc2c(c1)CC[C@@H](NC(NC1CC=CC1)=[NH+][C@@H]1C=C[C@@H](O)[C@H]1O)C2

$$$$
