CC=C(CCl)c1ccc(C[C@@H](C=CCc2ccccc2)Nc2[nH]cc(-c3ccc(N)cc3)[nH+]2)cc1
     RDKit          3D

 67 70  0  0  1  0  0  0  0  0999 V2000
  136.9539  141.2098  160.7950 C   0  0  0  0  0  0  0  0  0  0  0  0
  135.5163  140.7696  160.6927 C   0  0  0  0  0  0  0  0  0  0  0  0
  135.1520  139.5824  161.1566 C   0  0  0  0  0  0  0  0  0  0  0  0
  136.1755  138.6729  161.7862 C   0  0  0  0  0  0  0  0  0  0  0  0
  136.2638  139.0020  163.5567 Cl  0  0  0  0  0  0  0  0  0  0  0  0
  133.7418  139.1506  161.0564 C   0  0  0  0  0  0  0  0  0  0  0  0
  133.0178  138.8487  162.2103 C   0  0  0  0  0  0  0  0  0  0  0  0
  131.7021  138.4456  162.1097 C   0  0  0  0  0  0  0  0  0  0  0  0
  131.1007  138.3403  160.8683 C   0  0  0  0  0  0  0  0  0  0  0  0
  129.6634  137.8990  160.7661 C   0  0  0  0  0  0  0  0  0  0  0  0
  129.6051  136.3748  160.6475 C   0  0  1  0  0  0  0  0  0  0  0  0
  130.3456  135.9300  161.3123 H   0  0  0  0  0  0  0  0  0  0  0  0
  128.2302  135.8931  161.0329 C   0  0  0  0  0  0  0  0  0  0  0  0
  128.0839  135.0647  162.0371 C   0  0  0  0  0  0  0  0  0  0  0  0
  126.7090  134.5829  162.4224 C   0  0  0  0  0  0  0  0  0  0  0  0
  126.3873  133.3218  161.6627 C   0  0  0  0  0  0  0  0  0  0  0  0
  125.7639  133.3967  160.4312 C   0  0  0  0  0  0  0  0  0  0  0  0
  125.4693  132.2399  159.7341 C   0  0  0  0  0  0  0  0  0  0  0  0
  125.7970  131.0082  160.2692 C   0  0  0  0  0  0  0  0  0  0  0  0
  126.4207  130.9333  161.5005 C   0  0  0  0  0  0  0  0  0  0  0  0
  126.7161  132.0901  162.1971 C   0  0  0  0  0  0  0  0  0  0  0  0
  129.8907  135.9811  159.2655 N   0  0  0  0  0  0  0  0  0  0  0  0
  129.8946  134.6422  158.9138 C   0  0  0  0  0  0  0  0  0  0  0  0
  129.6437  133.6014  159.7538 N   0  0  0  0  0  0  0  0  0  0  0  0
  129.4323  133.6635  160.6984 H   0  0  0  0  0  0  0  0  0  0  0  0
  129.7460  132.4457  159.0162 C   0  0  0  0  0  0  0  0  0  0  0  0
  130.0560  132.8143  157.7487 C   0  0  0  0  0  0  0  0  0  0  0  0
  130.2665  131.8992  156.6003 C   0  0  0  0  0  0  0  0  0  0  0  0
  129.4527  131.9958  155.4725 C   0  0  0  0  0  0  0  0  0  0  0  0
  129.6537  131.1477  154.4041 C   0  0  0  0  0  0  0  0  0  0  0  0
  130.6590  130.1894  154.4555 C   0  0  0  0  0  0  0  0  0  0  0  0
  130.8564  129.3278  153.3737 N   0  0  0  0  0  0  0  0  0  0  0  0
  131.4679  130.0877  155.5810 C   0  0  0  0  0  0  0  0  0  0  0  0
  131.2745  130.9375  156.6495 C   0  0  0  0  0  0  0  0  0  0  0  0
  130.1349  134.1682  157.7155 N   0  0  0  0  0  0  0  0  0  0  0  0
  130.3389  134.7005  156.9308 H   0  0  0  0  0  0  0  0  0  0  0  0
  131.8148  138.6328  159.7201 C   0  0  0  0  0  0  0  0  0  0  0  0
  133.1293  139.0428  159.8073 C   0  0  0  0  0  0  0  0  0  0  0  0
  137.2530  141.2335  161.8429 H   0  0  0  0  0  0  0  0  0  0  0  0
  137.5880  140.5089  160.2518 H   0  0  0  0  0  0  0  0  0  0  0  0
  137.0607  142.2052  160.3641 H   0  0  0  0  0  0  0  0  0  0  0  0
  134.7828  141.4214  160.2416 H   0  0  0  0  0  0  0  0  0  0  0  0
  135.8875  137.6343  161.6237 H   0  0  0  0  0  0  0  0  0  0  0  0
  137.1504  138.8547  161.3338 H   0  0  0  0  0  0  0  0  0  0  0  0
  133.4864  138.9299  163.1800 H   0  0  0  0  0  0  0  0  0  0  0  0
  131.1405  138.2116  163.0021 H   0  0  0  0  0  0  0  0  0  0  0  0
  129.2068  138.3498  159.8849 H   0  0  0  0  0  0  0  0  0  0  0  0
  129.1219  138.2150  161.6578 H   0  0  0  0  0  0  0  0  0  0  0  0
  127.3652  136.2310  160.4813 H   0  0  0  0  0  0  0  0  0  0  0  0
  128.9488  134.7268  162.5886 H   0  0  0  0  0  0  0  0  0  0  0  0
  125.9740  135.3505  162.1803 H   0  0  0  0  0  0  0  0  0  0  0  0
  126.6823  134.3790  163.4928 H   0  0  0  0  0  0  0  0  0  0  0  0
  125.5030  134.3589  160.0156 H   0  0  0  0  0  0  0  0  0  0  0  0
  124.9820  132.2985  158.7721 H   0  0  0  0  0  0  0  0  0  0  0  0
  125.5668  130.1044  159.7246 H   0  0  0  0  0  0  0  0  0  0  0  0
  126.6776  129.9710  161.9180 H   0  0  0  0  0  0  0  0  0  0  0  0
  127.2035  132.0315  163.1591 H   0  0  0  0  0  0  0  0  0  0  0  0
  130.0771  136.6588  158.5969 H   0  0  0  0  0  0  0  0  0  0  0  0
  129.6062  131.4375  159.3773 H   0  0  0  0  0  0  0  0  0  0  0  0
  128.6684  132.7372  155.4339 H   0  0  0  0  0  0  0  0  0  0  0  0
  129.0264  131.2251  153.5283 H   0  0  0  0  0  0  0  0  0  0  0  0
  131.5585  128.6584  153.4093 H   0  0  0  0  0  0  0  0  0  0  0  0
  130.2926  129.3976  152.5883 H   0  0  0  0  0  0  0  0  0  0  0  0
  132.2486  129.3423  155.6189 H   0  0  0  0  0  0  0  0  0  0  0  0
  131.9035  130.8585  157.5238 H   0  0  0  0  0  0  0  0  0  0  0  0
  131.3408  138.5444  158.7537 H   0  0  0  0  0  0  0  0  0  0  0  0
  133.6845  139.2748  158.9104 H   0  0  0  0  0  0  0  0  0  0  0  0
  1  2  1  0
  1 39  1  0
  1 40  1  0
  1 41  1  0
  2  3  2  0
  2 42  1  0
  3  4  1  0
  3  6  1  0
  4  5  1  0
  4 43  1  0
  4 44  1  0
  6 38  2  0
  6  7  1  0
  7  8  2  0
  7 45  1  0
  8  9  1  0
  8 46  1  0
  9 10  1  0
  9 37  2  0
 10 11  1  0
 10 47  1  0
 10 48  1  0
 11 12  1  1
 11 13  1  0
 11 22  1  0
 13 14  2  0
 13 49  1  0
 14 15  1  0
 14 50  1  0
 15 16  1  0
 15 51  1  0
 15 52  1  0
 16 21  1  0
 16 17  2  0
 17 18  1  0
 17 53  1  0
 18 19  2  0
 18 54  1  0
 19 20  1  0
 19 55  1  0
 20 21  2  0
 20 56  1  0
 21 57  1  0
 22 58  1  0
 23 22  1  0
 23 35  2  0
 23 24  1  0
 24 25  1  0
 24 26  1  0
 26 27  2  0
 26 59  1  0
 27 28  1  0
 27 35  1  0
 28 34  1  0
 28 29  2  0
 29 30  1  0
 29 60  1  0
 30 31  2  0
 30 61  1  0
 31 32  1  0
 31 33  1  0
 32 62  1  0
 32 63  1  0
 33 34  2  0
 33 64  1  0
 34 65  1  0
 35 36  1  0
 37 38  1  0
 37 66  1  0
 38 67  1  0
M  CHG  1  35   1
M  END
>  <DOCK_score>  (1) 
-57.967464

>  <SMILES>  (1) 
CC=C(CCl)c1ccc(C[C@@H](C=CCc2ccccc2)Nc2[nH]cc(-c3ccc(N)cc3)[nH+]2)cc1

$$$$
