Clc1ccc(C[C@@H](Nc2[nH]cc(-c3ccc(-c4ccccc4)cc3)[nH+]2)c2ccccc2)cc1
     RDKit          3D

 58 62  0  0  1  0  0  0  0  0999 V2000
  125.7821  132.7032  159.7259 Cl  0  0  0  0  0  0  0  0  0  0  0  0
  127.0210  133.7903  160.2712 C   0  0  0  0  0  0  0  0  0  0  0  0
  127.5121  134.7631  159.4190 C   0  0  0  0  0  0  0  0  0  0  0  0
  128.4940  135.6324  159.8557 C   0  0  0  0  0  0  0  0  0  0  0  0
  128.9889  135.5265  161.1420 C   0  0  0  0  0  0  0  0  0  0  0  0
  130.0591  136.4749  161.6179 C   0  0  0  0  0  0  0  0  0  0  0  0
  131.4368  135.8837  161.3123 C   0  0  1  0  0  0  0  0  0  0  0  0
  131.5440  134.9279  161.8253 H   0  0  0  0  0  0  0  0  0  0  0  0
  131.5717  135.6805  159.8678 N   0  0  0  0  0  0  0  0  0  0  0  0
  131.1861  134.4788  159.2989 C   0  0  0  0  0  0  0  0  0  0  0  0
  130.6644  133.4156  159.9696 N   0  0  0  0  0  0  0  0  0  0  0  0
  130.4979  133.3638  160.9238 H   0  0  0  0  0  0  0  0  0  0  0  0
  130.4177  132.4292  159.0462 C   0  0  0  0  0  0  0  0  0  0  0  0
  130.7955  132.9176  157.8382 C   0  0  0  0  0  0  0  0  0  0  0  0
  130.7130  132.2012  156.5429 C   0  0  0  0  0  0  0  0  0  0  0  0
  129.9383  132.7217  155.5061 C   0  0  0  0  0  0  0  0  0  0  0  0
  129.8653  132.0585  154.3013 C   0  0  0  0  0  0  0  0  0  0  0  0
  130.5573  130.8618  154.1209 C   0  0  0  0  0  0  0  0  0  0  0  0
  130.4738  130.1439  152.8258 C   0  0  0  0  0  0  0  0  0  0  0  0
  130.5940  128.7557  152.7858 C   0  0  0  0  0  0  0  0  0  0  0  0
  130.5109  128.0932  151.5780 C   0  0  0  0  0  0  0  0  0  0  0  0
  130.3188  128.8049  150.4076 C   0  0  0  0  0  0  0  0  0  0  0  0
  130.2037  130.1830  150.4407 C   0  0  0  0  0  0  0  0  0  0  0  0
  130.2804  130.8558  151.6432 C   0  0  0  0  0  0  0  0  0  0  0  0
  131.3282  130.3382  155.1593 C   0  0  0  0  0  0  0  0  0  0  0  0
  131.4053  131.0038  156.3626 C   0  0  0  0  0  0  0  0  0  0  0  0
  131.2581  134.1795  158.0249 N   0  0  0  0  0  0  0  0  0  0  0  0
  131.5908  134.7656  157.3274 H   0  0  0  0  0  0  0  0  0  0  0  0
  132.5071  136.8319  161.7882 C   0  0  0  0  0  0  0  0  0  0  0  0
  133.7276  136.8779  161.1408 C   0  0  0  0  0  0  0  0  0  0  0  0
  134.7077  137.7508  161.5745 C   0  0  0  0  0  0  0  0  0  0  0  0
  134.4703  138.5716  162.6617 C   0  0  0  0  0  0  0  0  0  0  0  0
  133.2520  138.5218  163.3121 C   0  0  0  0  0  0  0  0  0  0  0  0
  132.2703  137.6519  162.8756 C   0  0  0  0  0  0  0  0  0  0  0  0
  128.5030  134.5506  161.9921 C   0  0  0  0  0  0  0  0  0  0  0  0
  127.5215  133.6806  161.5563 C   0  0  0  0  0  0  0  0  0  0  0  0
  127.1252  134.8463  158.4140 H   0  0  0  0  0  0  0  0  0  0  0  0
  128.8743  136.3948  159.1919 H   0  0  0  0  0  0  0  0  0  0  0  0
  129.9520  137.4305  161.1049 H   0  0  0  0  0  0  0  0  0  0  0  0
  129.9588  136.6261  162.6927 H   0  0  0  0  0  0  0  0  0  0  0  0
  131.9310  136.3880  159.3100 H   0  0  0  0  0  0  0  0  0  0  0  0
  130.0021  131.4522  159.2439 H   0  0  0  0  0  0  0  0  0  0  0  0
  129.3990  133.6466  155.6469 H   0  0  0  0  0  0  0  0  0  0  0  0
  129.2684  132.4633  153.4972 H   0  0  0  0  0  0  0  0  0  0  0  0
  130.7482  128.1996  153.6986 H   0  0  0  0  0  0  0  0  0  0  0  0
  130.5997  127.0174  151.5463 H   0  0  0  0  0  0  0  0  0  0  0  0
  130.2590  128.2826  149.4641 H   0  0  0  0  0  0  0  0  0  0  0  0
  130.0539  130.7336  149.5237 H   0  0  0  0  0  0  0  0  0  0  0  0
  130.1912  131.9318  151.6678 H   0  0  0  0  0  0  0  0  0  0  0  0
  131.8643  129.4111  155.0197 H   0  0  0  0  0  0  0  0  0  0  0  0
  132.0021  130.5988  157.1664 H   0  0  0  0  0  0  0  0  0  0  0  0
  133.9142  136.2341  160.2939 H   0  0  0  0  0  0  0  0  0  0  0  0
  135.6597  137.7899  161.0661 H   0  0  0  0  0  0  0  0  0  0  0  0
  135.2374  139.2513  163.0021 H   0  0  0  0  0  0  0  0  0  0  0  0
  133.0667  139.1628  164.1614 H   0  0  0  0  0  0  0  0  0  0  0  0
  131.3182  137.6131  163.3841 H   0  0  0  0  0  0  0  0  0  0  0  0
  128.8900  134.4683  162.9969 H   0  0  0  0  0  0  0  0  0  0  0  0
  127.1418  132.9181  162.2205 H   0  0  0  0  0  0  0  0  0  0  0  0
  1  2  1  0
  2 36  2  0
  2  3  1  0
  3  4  2  0
  3 37  1  0
  4  5  1  0
  4 38  1  0
  5  6  1  0
  5 35  2  0
  6  7  1  0
  6 39  1  0
  6 40  1  0
  7  8  1  1
  7  9  1  0
  7 29  1  0
  9 41  1  0
 10  9  1  0
 10 27  2  0
 10 11  1  0
 11 12  1  0
 11 13  1  0
 13 14  2  0
 13 42  1  0
 14 15  1  0
 14 27  1  0
 15 26  1  0
 15 16  2  0
 16 17  1  0
 16 43  1  0
 17 18  2  0
 17 44  1  0
 18 19  1  0
 18 25  1  0
 19 24  1  0
 19 20  2  0
 20 21  1  0
 20 45  1  0
 21 22  2  0
 21 46  1  0
 22 23  1  0
 22 47  1  0
 23 24  2  0
 23 48  1  0
 24 49  1  0
 25 26  2  0
 25 50  1  0
 26 51  1  0
 27 28  1  0
 29 34  1  0
 29 30  2  0
 30 31  1  0
 30 52  1  0
 31 32  2  0
 31 53  1  0
 32 33  1  0
 32 54  1  0
 33 34  2  0
 33 55  1  0
 34 56  1  0
 35 36  1  0
 35 57  1  0
 36 58  1  0
M  CHG  1  27   1
M  END
>  <DOCK_score>  (1) 
-64.865295

>  <SMILES>  (1) 
Clc1ccc(C[C@@H](Nc2[nH]cc(-c3ccc(-c4ccccc4)cc3)[nH+]2)c2ccccc2)cc1

$$$$
