O=C1CC[C@H](NC(NC2CC2)=[NH+]C2CCc3ccc(-c4ccccc4)cc32)CN1
     RDKit          3D

 58 62  0  0  1  0  0  0  0  0999 V2000
  123.3016  133.6548  161.2453 O   0  0  0  0  0  0  0  0  0  0  0  0
  124.4848  133.8849  161.1120 C   0  0  0  0  0  0  0  0  0  0  0  0
  125.3558  132.8120  160.5239 C   0  0  0  0  0  0  0  0  0  0  0  0
  126.8253  133.1047  160.8363 C   0  0  0  0  0  0  0  0  0  0  0  0
  127.1158  134.5664  160.4751 C   0  0  2  0  0  0  0  0  0  0  0  0
  126.7959  134.7607  159.4514 H   0  0  0  0  0  0  0  0  0  0  0  0
  128.5521  134.8271  160.5991 N   0  0  0  0  0  0  0  0  0  0  0  0
  129.3809  134.6374  159.5187 C   0  0  0  0  0  0  0  0  0  0  0  0
  128.8619  134.2030  158.3221 N   0  0  0  0  0  0  0  0  0  0  0  0
  129.7449  134.0008  157.1708 C   0  0  0  0  0  0  0  0  0  0  0  0
  129.6637  132.6561  156.4456 C   0  0  0  0  0  0  0  0  0  0  0  0
  130.8768  132.9820  157.3189 C   0  0  0  0  0  0  0  0  0  0  0  0
  130.6588  134.8694  159.6290 N   0  0  0  0  0  0  0  0  0  0  0  0
  131.1669  135.1634  158.8568 H   0  0  0  0  0  0  0  0  0  0  0  0
  131.3278  134.6860  160.9193 C   0  0  1  0  0  0  0  0  0  0  0  0
  132.5111  133.7057  160.7745 C   0  0  0  0  0  0  0  0  0  0  0  0
  133.5396  134.2775  161.7731 C   0  0  0  0  0  0  0  0  0  0  0  0
  133.2209  135.7546  161.8715 C   0  0  0  0  0  0  0  0  0  0  0  0
  133.9815  136.8065  162.3523 C   0  0  0  0  0  0  0  0  0  0  0  0
  133.4805  138.0909  162.3461 C   0  0  0  0  0  0  0  0  0  0  0  0
  132.1999  138.3327  161.8527 C   0  0  0  0  0  0  0  0  0  0  0  0
  131.6527  139.7120  161.8428 C   0  0  0  0  0  0  0  0  0  0  0  0
  130.7422  140.0960  160.8605 C   0  0  0  0  0  0  0  0  0  0  0  0
  130.2325  141.3786  160.8592 C   0  0  0  0  0  0  0  0  0  0  0  0
  130.6318  142.2853  161.8238 C   0  0  0  0  0  0  0  0  0  0  0  0
  131.5403  141.9113  162.7982 C   0  0  0  0  0  0  0  0  0  0  0  0
  132.0520  140.6296  162.8124 C   0  0  0  0  0  0  0  0  0  0  0  0
  131.4363  137.2739  161.3696 C   0  0  0  0  0  0  0  0  0  0  0  0
  131.9466  135.9886  161.3800 C   0  0  0  0  0  0  0  0  0  0  0  0
  126.3450  135.4739  161.4346 C   0  0  0  0  0  0  0  0  0  0  0  0
  124.9432  135.0769  161.4958 N   0  0  0  0  0  0  0  0  0  0  0  0
  125.2141  132.7824  159.4435 H   0  0  0  0  0  0  0  0  0  0  0  0
  125.0799  131.8476  160.9505 H   0  0  0  0  0  0  0  0  0  0  0  0
  127.4639  132.4470  160.2464 H   0  0  0  0  0  0  0  0  0  0  0  0
  127.0138  132.9445  161.8979 H   0  0  0  0  0  0  0  0  0  0  0  0
  128.9183  135.1337  161.4434 H   0  0  0  0  0  0  0  0  0  0  0  0
  127.9109  134.0303  158.2401 H   0  0  0  0  0  0  0  0  0  0  0  0
  129.9413  134.8873  156.5676 H   0  0  0  0  0  0  0  0  0  0  0  0
  128.9531  131.9217  156.8251 H   0  0  0  0  0  0  0  0  0  0  0  0
  129.8064  132.6575  155.3649 H   0  0  0  0  0  0  0  0  0  0  0  0
  131.8178  133.1981  156.8129 H   0  0  0  0  0  0  0  0  0  0  0  0
  130.9645  132.4622  158.2730 H   0  0  0  0  0  0  0  0  0  0  0  0
  130.6214  134.3188  161.6637 H   0  0  0  0  0  0  0  0  0  0  0  0
  132.9063  133.7228  159.7588 H   0  0  0  0  0  0  0  0  0  0  0  0
  132.2148  132.6960  161.0592 H   0  0  0  0  0  0  0  0  0  0  0  0
  133.4270  133.8008  162.7467 H   0  0  0  0  0  0  0  0  0  0  0  0
  134.5524  134.1335  161.3969 H   0  0  0  0  0  0  0  0  0  0  0  0
  134.9741  136.6192  162.7347 H   0  0  0  0  0  0  0  0  0  0  0  0
  134.0787  138.9074  162.7229 H   0  0  0  0  0  0  0  0  0  0  0  0
  130.4328  139.3901  160.1040 H   0  0  0  0  0  0  0  0  0  0  0  0
  129.5233  141.6761  160.1009 H   0  0  0  0  0  0  0  0  0  0  0  0
  130.2344  143.2894  161.8167 H   0  0  0  0  0  0  0  0  0  0  0  0
  131.8491  142.6234  163.5493 H   0  0  0  0  0  0  0  0  0  0  0  0
  132.7609  140.3384  163.5734 H   0  0  0  0  0  0  0  0  0  0  0  0
  130.4433  137.4564  160.9861 H   0  0  0  0  0  0  0  0  0  0  0  0
  126.7820  135.3995  162.4304 H   0  0  0  0  0  0  0  0  0  0  0  0
  126.4155  136.5055  161.0897 H   0  0  0  0  0  0  0  0  0  0  0  0
  124.3033  135.7222  161.8352 H   0  0  0  0  0  0  0  0  0  0  0  0
  1  2  2  0
  2 31  1  0
  2  3  1  0
  3  4  1  0
  3 32  1  0
  3 33  1  0
  4  5  1  0
  4 34  1  0
  4 35  1  0
  5  6  1  6
  5  7  1  0
  5 30  1  0
  7 36  1  0
  8  7  1  0
  8  9  1  0
  8 13  2  0
  9 10  1  0
  9 37  1  0
 10 12  1  0
 10 11  1  0
 10 38  1  0
 11 12  1  0
 11 39  1  0
 11 40  1  0
 12 41  1  0
 12 42  1  0
 13 14  1  0
 13 15  1  0
 15 29  1  0
 15 16  1  0
 15 43  1  1
 16 17  1  0
 16 44  1  0
 16 45  1  0
 17 18  1  0
 17 46  1  0
 17 47  1  0
 18 29  2  0
 18 19  1  0
 19 20  2  0
 19 48  1  0
 20 21  1  0
 20 49  1  0
 21 22  1  0
 21 28  2  0
 22 27  1  0
 22 23  2  0
 23 24  1  0
 23 50  1  0
 24 25  2  0
 24 51  1  0
 25 26  1  0
 25 52  1  0
 26 27  2  0
 26 53  1  0
 27 54  1  0
 28 29  1  0
 28 55  1  0
 30 31  1  0
 30 56  1  0
 30 57  1  0
 31 58  1  0
M  CHG  1  13   1
M  END
>  <DOCK_score>  (1) 
-48.583008

>  <SMILES>  (1) 
O=C1CC[C@H](NC(NC2CC2)=[NH+]C2CCc3ccc(-c4ccccc4)cc32)CN1

$$$$
