CCc1ccc(-c2c[nH]c(N[C@H](c3ccc(C)cc3)C(Cl)Cc3ccccc3)[nH+]2)cc1
     RDKit          3D

 60 63  0  0  1  0  0  0  0  0999 V2000
  130.4620  130.2429  151.1301 C   0  0  0  0  0  0  0  0  0  0  0  0
  131.2229  129.5276  152.2475 C   0  0  0  0  0  0  0  0  0  0  0  0
  131.0196  130.2653  153.5459 C   0  0  0  0  0  0  0  0  0  0  0  0
  130.2367  131.4047  153.5756 C   0  0  0  0  0  0  0  0  0  0  0  0
  130.0432  132.0816  154.7626 C   0  0  0  0  0  0  0  0  0  0  0  0
  130.6470  131.6205  155.9311 C   0  0  0  0  0  0  0  0  0  0  0  0
  130.4469  132.3465  157.2090 C   0  0  0  0  0  0  0  0  0  0  0  0
  129.8988  131.8360  158.3395 C   0  0  0  0  0  0  0  0  0  0  0  0
  129.9058  132.8418  159.2752 N   0  0  0  0  0  0  0  0  0  0  0  0
  129.5771  132.7814  160.1859 H   0  0  0  0  0  0  0  0  0  0  0  0
  130.4584  133.9384  158.6886 C   0  0  0  0  0  0  0  0  0  0  0  0
  130.6484  135.1680  159.2956 N   0  0  0  0  0  0  0  0  0  0  0  0
  130.2398  135.3684  160.6882 C   0  0  2  0  0  0  0  0  0  0  0  0
  130.7803  134.6720  161.3292 H   0  0  0  0  0  0  0  0  0  0  0  0
  128.7584  135.1236  160.8172 C   0  0  0  0  0  0  0  0  0  0  0  0
  127.9199  135.3796  159.7484 C   0  0  0  0  0  0  0  0  0  0  0  0
  126.5616  135.1510  159.8654 C   0  0  0  0  0  0  0  0  0  0  0  0
  126.0407  134.6750  161.0542 C   0  0  0  0  0  0  0  0  0  0  0  0
  124.5593  134.4296  161.1825 C   0  0  0  0  0  0  0  0  0  0  0  0
  126.8785  134.4242  162.1245 C   0  0  0  0  0  0  0  0  0  0  0  0
  128.2373  134.6487  162.0063 C   0  0  0  0  0  0  0  0  0  0  0  0
  130.5584  136.8037  161.1117 C   0  0  2  0  0  0  0  0  0  0  0  0
  132.1541  137.2916  160.4288 Cl  0  0  0  0  0  0  0  0  0  0  0  0
  130.6107  136.8851  162.6386 C   0  0  0  0  0  0  0  0  0  0  0  0
  130.9244  138.2988  163.0559 C   0  0  0  0  0  0  0  0  0  0  0  0
  132.2381  138.6939  163.2259 C   0  0  0  0  0  0  0  0  0  0  0  0
  132.5260  139.9920  163.6038 C   0  0  0  0  0  0  0  0  0  0  0  0
  131.4992  140.8925  163.8215 C   0  0  0  0  0  0  0  0  0  0  0  0
  130.1859  140.4957  163.6570 C   0  0  0  0  0  0  0  0  0  0  0  0
  129.8982  139.1989  163.2739 C   0  0  0  0  0  0  0  0  0  0  0  0
  130.7850  133.6371  157.4556 N   0  0  0  0  0  0  0  0  0  0  0  0
  131.2006  134.2410  156.8202 H   0  0  0  0  0  0  0  0  0  0  0  0
  131.4393  130.4744  155.8945 C   0  0  0  0  0  0  0  0  0  0  0  0
  131.6217  129.8027  154.7027 C   0  0  0  0  0  0  0  0  0  0  0  0
  130.6090  129.7093  150.1910 H   0  0  0  0  0  0  0  0  0  0  0  0
  129.3993  130.2669  151.3717 H   0  0  0  0  0  0  0  0  0  0  0  0
  130.8352  131.2621  151.0312 H   0  0  0  0  0  0  0  0  0  0  0  0
  130.8498  128.5078  152.3467 H   0  0  0  0  0  0  0  0  0  0  0  0
  132.2856  129.5031  152.0062 H   0  0  0  0  0  0  0  0  0  0  0  0
  129.7728  131.7636  152.6687 H   0  0  0  0  0  0  0  0  0  0  0  0
  129.4278  132.9689  154.7854 H   0  0  0  0  0  0  0  0  0  0  0  0
  129.5276  130.8313  158.4776 H   0  0  0  0  0  0  0  0  0  0  0  0
  131.0519  135.8969  158.7990 H   0  0  0  0  0  0  0  0  0  0  0  0
  128.3264  135.7550  158.8210 H   0  0  0  0  0  0  0  0  0  0  0  0
  125.9071  135.3468  159.0290 H   0  0  0  0  0  0  0  0  0  0  0  0
  124.0709  135.3349  161.5429 H   0  0  0  0  0  0  0  0  0  0  0  0
  124.1502  134.1582  160.2096 H   0  0  0  0  0  0  0  0  0  0  0  0
  124.3858  133.6175  161.8891 H   0  0  0  0  0  0  0  0  0  0  0  0
  126.4715  134.0523  163.0533 H   0  0  0  0  0  0  0  0  0  0  0  0
  128.8919  134.4527  162.8425 H   0  0  0  0  0  0  0  0  0  0  0  0
  129.7834  137.4732  160.7385 H   0  0  0  0  0  0  0  0  0  0  0  0
  129.6460  136.5901  163.0515 H   0  0  0  0  0  0  0  0  0  0  0  0
  131.3857  136.2157  163.0119 H   0  0  0  0  0  0  0  0  0  0  0  0
  133.0397  137.9894  163.0599 H   0  0  0  0  0  0  0  0  0  0  0  0
  133.5525  140.3018  163.7332 H   0  0  0  0  0  0  0  0  0  0  0  0
  131.7246  141.9052  164.1216 H   0  0  0  0  0  0  0  0  0  0  0  0
  129.3841  141.1988  163.8277 H   0  0  0  0  0  0  0  0  0  0  0  0
  128.8716  138.8890  163.1453 H   0  0  0  0  0  0  0  0  0  0  0  0
  131.9099  130.1129  156.7966 H   0  0  0  0  0  0  0  0  0  0  0  0
  132.2356  128.9147  154.6731 H   0  0  0  0  0  0  0  0  0  0  0  0
  1  2  1  0
  1 35  1  0
  1 36  1  0
  1 37  1  0
  2  3  1  0
  2 38  1  0
  2 39  1  0
  3 34  2  0
  3  4  1  0
  4  5  2  0
  4 40  1  0
  5  6  1  0
  5 41  1  0
  6  7  1  0
  6 33  2  0
  7 31  1  0
  7  8  2  0
  8  9  1  0
  8 42  1  0
  9 10  1  0
  9 11  1  0
 11 12  1  0
 11 31  2  0
 12 13  1  0
 12 43  1  0
 13 14  1  1
 13 15  1  0
 13 22  1  0
 15 21  1  0
 15 16  2  0
 16 17  1  0
 16 44  1  0
 17 18  2  0
 17 45  1  0
 18 19  1  0
 18 20  1  0
 19 46  1  0
 19 47  1  0
 19 48  1  0
 20 21  2  0
 20 49  1  0
 21 50  1  0
 22 23  1  0
 22 24  1  0
 22 51  1  6
 24 25  1  0
 24 52  1  0
 24 53  1  0
 25 30  1  0
 25 26  2  0
 26 27  1  0
 26 54  1  0
 27 28  2  0
 27 55  1  0
 28 29  1  0
 28 56  1  0
 29 30  2  0
 29 57  1  0
 30 58  1  0
 31 32  1  0
 33 34  1  0
 33 59  1  0
 34 60  1  0
M  CHG  1  31   1
M  END
>  <DOCK_score>  (1) 
-57.90778

>  <SMILES>  (1) 
CCc1ccc(-c2c[nH]c(N[C@H](c3ccc(C)cc3)C(Cl)Cc3ccccc3)[nH+]2)cc1

$$$$
