Cc1ccc(-c2ccc(-c3n[nH]cc3C[NH2+]CCO)cc2)cc1
     RDKit          3D

 45 47  0  0  0  0  0  0  0  0999 V2000
  131.9339  129.1283  152.6208 C   0  0  0  0  0  0  0  0  0  0  0  0
  131.3273  130.0328  153.6627 C   0  0  0  0  0  0  0  0  0  0  0  0
  130.4382  131.0219  153.2831 C   0  0  0  0  0  0  0  0  0  0  0  0
  129.8752  131.8493  154.2333 C   0  0  0  0  0  0  0  0  0  0  0  0
  130.2085  131.6902  155.5773 C   0  0  0  0  0  0  0  0  0  0  0  0
  129.6073  132.5766  156.6034 C   0  0  0  0  0  0  0  0  0  0  0  0
  129.3970  132.1023  157.8977 C   0  0  0  0  0  0  0  0  0  0  0  0
  128.8431  132.9272  158.8520 C   0  0  0  0  0  0  0  0  0  0  0  0
  128.4829  134.2328  158.5207 C   0  0  0  0  0  0  0  0  0  0  0  0
  127.8807  135.1189  159.5467 C   0  0  0  0  0  0  0  0  0  0  0  0
  126.7627  134.8942  160.2047 N   0  0  0  0  0  0  0  0  0  0  0  0
  126.5474  135.9689  161.0769 N   0  0  0  0  0  0  0  0  0  0  0  0
  125.7976  136.0674  161.6844 H   0  0  0  0  0  0  0  0  0  0  0  0
  127.5647  136.8439  160.9252 C   0  0  0  0  0  0  0  0  0  0  0  0
  128.4071  136.3469  159.9935 C   0  0  0  0  0  0  0  0  0  0  0  0
  129.6814  136.9931  159.5144 C   0  0  0  0  0  0  0  0  0  0  0  0
  130.7467  135.9839  159.4464 N   0  0  0  0  0  0  0  0  0  0  0  0
  130.4778  135.2537  158.8041 H   0  0  0  0  0  0  0  0  0  0  0  0
  131.5999  136.4165  159.1255 H   0  0  0  0  0  0  0  0  0  0  0  0
  130.9614  135.4079  160.7806 C   0  0  0  0  0  0  0  0  0  0  0  0
  132.0711  134.3568  160.7098 C   0  0  0  0  0  0  0  0  0  0  0  0
  133.2793  134.9697  160.2554 O   0  0  0  0  0  0  0  0  0  0  0  0
  128.6883  134.7054  157.2252 C   0  0  0  0  0  0  0  0  0  0  0  0
  129.2471  133.8823  156.2722 C   0  0  0  0  0  0  0  0  0  0  0  0
  131.1090  130.6952  155.9536 C   0  0  0  0  0  0  0  0  0  0  0  0
  131.6658  129.8735  154.9945 C   0  0  0  0  0  0  0  0  0  0  0  0
  132.8612  129.5679  152.2536 H   0  0  0  0  0  0  0  0  0  0  0  0
  132.1435  128.1543  153.0630 H   0  0  0  0  0  0  0  0  0  0  0  0
  131.2355  129.0087  151.7926 H   0  0  0  0  0  0  0  0  0  0  0  0
  130.1805  131.1441  152.2413 H   0  0  0  0  0  0  0  0  0  0  0  0
  129.1782  132.6188  153.9362 H   0  0  0  0  0  0  0  0  0  0  0  0
  129.6719  131.0895  158.1531 H   0  0  0  0  0  0  0  0  0  0  0  0
  128.6840  132.5611  159.8555 H   0  0  0  0  0  0  0  0  0  0  0  0
  127.6861  137.7751  161.4587 H   0  0  0  0  0  0  0  0  0  0  0  0
  129.5221  137.4205  158.5244 H   0  0  0  0  0  0  0  0  0  0  0  0
  129.9719  137.7819  160.2082 H   0  0  0  0  0  0  0  0  0  0  0  0
  131.2521  136.1968  161.4744 H   0  0  0  0  0  0  0  0  0  0  0  0
  130.0397  134.9405  161.1272 H   0  0  0  0  0  0  0  0  0  0  0  0
  132.2304  133.9295  161.6999 H   0  0  0  0  0  0  0  0  0  0  0  0
  131.7804  133.5680  160.0160 H   0  0  0  0  0  0  0  0  0  0  0  0
  133.2107  135.3718  159.3786 H   0  0  0  0  0  0  0  0  0  0  0  0
  128.4090  135.7166  156.9685 H   0  0  0  0  0  0  0  0  0  0  0  0
  129.4058  134.2483  155.2686 H   0  0  0  0  0  0  0  0  0  0  0  0
  131.3706  130.5671  156.9936 H   0  0  0  0  0  0  0  0  0  0  0  0
  132.3638  129.1023  155.2848 H   0  0  0  0  0  0  0  0  0  0  0  0
  1  2  1  0
  1 27  1  0
  1 28  1  0
  1 29  1  0
  2 26  2  0
  2  3  1  0
  3  4  2  0
  3 30  1  0
  4  5  1  0
  4 31  1  0
  5  6  1  0
  5 25  2  0
  6 24  1  0
  6  7  2  0
  7  8  1  0
  7 32  1  0
  8  9  2  0
  8 33  1  0
  9 10  1  0
  9 23  1  0
 10 15  1  0
 10 11  2  0
 11 12  1  0
 12 13  1  0
 12 14  1  0
 14 15  2  0
 14 34  1  0
 15 16  1  0
 16 17  1  0
 16 35  1  0
 16 36  1  0
 17 18  1  0
 17 19  1  0
 17 20  1  0
 20 21  1  0
 20 37  1  0
 20 38  1  0
 21 22  1  0
 21 39  1  0
 21 40  1  0
 22 41  1  0
 23 24  2  0
 23 42  1  0
 24 43  1  0
 25 26  1  0
 25 44  1  0
 26 45  1  0
M  CHG  1  17   1
M  END
>  <DOCK_score>  (1) 
-47.919762

>  <SMILES>  (1) 
Cc1ccc(-c2ccc(-c3n[nH]cc3C[NH2+]CCO)cc2)cc1

$$$$
