CCc1ccc(-c2c[nH]c(N[C@@H](CC)c3cc(C)on3)[nH+]2)cc1
     RDKit          3D

 46 48  0  0  1  0  0  0  0  0999 V2000
  130.1620  128.5333  151.5722 C   0  0  0  0  0  0  0  0  0  0  0  0
  131.2041  129.6393  151.7501 C   0  0  0  0  0  0  0  0  0  0  0  0
  130.9790  130.3344  153.0682 C   0  0  0  0  0  0  0  0  0  0  0  0
  131.6127  129.8728  154.2072 C   0  0  0  0  0  0  0  0  0  0  0  0
  131.4149  130.5087  155.4161 C   0  0  0  0  0  0  0  0  0  0  0  0
  130.5656  131.6113  155.4896 C   0  0  0  0  0  0  0  0  0  0  0  0
  130.3446  132.2956  156.7869 C   0  0  0  0  0  0  0  0  0  0  0  0
  129.8372  131.7311  157.9107 C   0  0  0  0  0  0  0  0  0  0  0  0
  129.8039  132.7137  158.8702 N   0  0  0  0  0  0  0  0  0  0  0  0
  129.4899  132.6152  159.7827 H   0  0  0  0  0  0  0  0  0  0  0  0
  130.2925  133.8508  158.3042 C   0  0  0  0  0  0  0  0  0  0  0  0
  130.4270  135.0738  158.9387 N   0  0  0  0  0  0  0  0  0  0  0  0
  130.0261  135.2200  160.3402 C   0  0  1  0  0  0  0  0  0  0  0  0
  130.3239  134.3320  160.8976 H   0  0  0  0  0  0  0  0  0  0  0  0
  130.7081  136.4513  160.9399 C   0  0  0  0  0  0  0  0  0  0  0  0
  132.2267  136.2835  160.8587 C   0  0  0  0  0  0  0  0  0  0  0  0
  128.5304  135.3853  160.4202 C   0  0  0  0  0  0  0  0  0  0  0  0
  127.6206  134.5439  161.1008 C   0  0  0  0  0  0  0  0  0  0  0  0
  126.4136  135.1158  160.8743 C   0  0  0  0  0  0  0  0  0  0  0  0
  125.0774  134.6311  161.3750 C   0  0  0  0  0  0  0  0  0  0  0  0
  126.6420  136.1950  160.1127 O   0  0  0  0  0  0  0  0  0  0  0  0
  127.8195  136.3278  159.8717 N   0  0  0  0  0  0  0  0  0  0  0  0
  130.6199  133.5955  157.0610 N   0  0  0  0  0  0  0  0  0  0  0  0
  130.9966  134.2346  156.4360 H   0  0  0  0  0  0  0  0  0  0  0  0
  129.9250  132.0689  154.3394 C   0  0  0  0  0  0  0  0  0  0  0  0
  130.1348  131.4286  153.1349 C   0  0  0  0  0  0  0  0  0  0  0  0
  130.3247  128.0307  150.6188 H   0  0  0  0  0  0  0  0  0  0  0  0
  130.2563  127.8120  152.3839 H   0  0  0  0  0  0  0  0  0  0  0  0
  129.1630  128.9689  151.5875 H   0  0  0  0  0  0  0  0  0  0  0  0
  132.2027  129.2042  151.7344 H   0  0  0  0  0  0  0  0  0  0  0  0
  131.1094  130.3611  150.9379 H   0  0  0  0  0  0  0  0  0  0  0  0
  132.2669  129.0153  154.1501 H   0  0  0  0  0  0  0  0  0  0  0  0
  131.9139  130.1501  156.3042 H   0  0  0  0  0  0  0  0  0  0  0  0
  129.5197  130.7056  158.0286 H   0  0  0  0  0  0  0  0  0  0  0  0
  130.7868  135.8340  158.4552 H   0  0  0  0  0  0  0  0  0  0  0  0
  130.4102  137.3392  160.3823 H   0  0  0  0  0  0  0  0  0  0  0  0
  130.4098  136.5600  161.9827 H   0  0  0  0  0  0  0  0  0  0  0  0
  132.7126  137.1607  161.2859 H   0  0  0  0  0  0  0  0  0  0  0  0
  132.5245  135.3954  161.4162 H   0  0  0  0  0  0  0  0  0  0  0  0
  132.5249  136.1747  159.8159 H   0  0  0  0  0  0  0  0  0  0  0  0
  127.8377  133.6530  161.6712 H   0  0  0  0  0  0  0  0  0  0  0  0
  124.2927  135.2999  161.0215 H   0  0  0  0  0  0  0  0  0  0  0  0
  124.8926  133.6243  161.0005 H   0  0  0  0  0  0  0  0  0  0  0  0
  125.0806  134.6186  162.4649 H   0  0  0  0  0  0  0  0  0  0  0  0
  129.2657  132.9228  154.3906 H   0  0  0  0  0  0  0  0  0  0  0  0
  129.6387  131.7822  152.2430 H   0  0  0  0  0  0  0  0  0  0  0  0
  1  2  1  0
  1 27  1  0
  1 28  1  0
  1 29  1  0
  2  3  1  0
  2 30  1  0
  2 31  1  0
  3 26  2  0
  3  4  1  0
  4  5  2  0
  4 32  1  0
  5  6  1  0
  5 33  1  0
  6  7  1  0
  6 25  2  0
  7 23  1  0
  7  8  2  0
  8  9  1  0
  8 34  1  0
  9 10  1  0
  9 11  1  0
 11 12  1  0
 11 23  2  0
 12 13  1  0
 12 35  1  0
 13 14  1  1
 13 15  1  0
 13 17  1  0
 15 16  1  0
 15 36  1  0
 15 37  1  0
 16 38  1  0
 16 39  1  0
 16 40  1  0
 17 22  2  0
 17 18  1  0
 18 19  2  0
 18 41  1  0
 19 20  1  0
 19 21  1  0
 20 42  1  0
 20 43  1  0
 20 44  1  0
 21 22  1  0
 23 24  1  0
 25 26  1  0
 25 45  1  0
 26 46  1  0
M  CHG  1  23   1
M  END
>  <DOCK_score>  (1) 
-52.379799

>  <SMILES>  (1) 
CCc1ccc(-c2c[nH]c(N[C@@H](CC)c3cc(C)on3)[nH+]2)cc1

$$$$
