C1=C[C@@H](Sc2ccc(-c3n[nH]cc3C[NH2+]Cc3ccccc3)cc2)CCC1
     RDKit          3D

 53 56  0  0  1  0  0  0  0  0999 V2000
  135.1198  139.2479  162.7428 C   0  0  0  0  0  0  0  0  0  0  0  0
  133.9815  139.1524  162.1339 C   0  0  0  0  0  0  0  0  0  0  0  0
  133.7390  139.6153  160.7276 C   0  0  1  0  0  0  0  0  0  0  0  0
  133.7197  138.7516  160.0629 H   0  0  0  0  0  0  0  0  0  0  0  0
  132.1431  140.4739  160.6436 S   0  0  0  0  0  0  0  0  0  0  0  0
  130.9845  139.1487  160.5668 C   0  0  0  0  0  0  0  0  0  0  0  0
  130.4587  138.6174  161.7402 C   0  0  0  0  0  0  0  0  0  0  0  0
  129.5474  137.5848  161.6821 C   0  0  0  0  0  0  0  0  0  0  0  0
  129.1614  137.0656  160.4474 C   0  0  0  0  0  0  0  0  0  0  0  0
  128.1851  135.9499  160.3832 C   0  0  0  0  0  0  0  0  0  0  0  0
  126.9495  135.9750  160.8366 N   0  0  0  0  0  0  0  0  0  0  0  0
  126.3667  134.7271  160.5813 N   0  0  0  0  0  0  0  0  0  0  0  0
  125.4612  134.4646  160.8092 H   0  0  0  0  0  0  0  0  0  0  0  0
  127.2844  133.9531  159.9632 C   0  0  0  0  0  0  0  0  0  0  0  0
  128.4147  134.6790  159.8210 C   0  0  0  0  0  0  0  0  0  0  0  0
  129.6948  134.2113  159.1777 C   0  0  0  0  0  0  0  0  0  0  0  0
  130.5583  133.5976  160.1954 N   0  0  0  0  0  0  0  0  0  0  0  0
  130.7700  134.2768  160.9109 H   0  0  0  0  0  0  0  0  0  0  0  0
  130.0827  132.8100  160.6096 H   0  0  0  0  0  0  0  0  0  0  0  0
  131.8062  133.1417  159.5685 C   0  0  0  0  0  0  0  0  0  0  0  0
  131.4899  132.1271  158.4999 C   0  0  0  0  0  0  0  0  0  0  0  0
  131.4357  130.7828  158.8173 C   0  0  0  0  0  0  0  0  0  0  0  0
  131.1409  129.8528  157.8381 C   0  0  0  0  0  0  0  0  0  0  0  0
  130.9106  130.2660  156.5392 C   0  0  0  0  0  0  0  0  0  0  0  0
  130.9698  131.6098  156.2206 C   0  0  0  0  0  0  0  0  0  0  0  0
  131.2595  132.5404  157.2010 C   0  0  0  0  0  0  0  0  0  0  0  0
  129.6931  137.5959  159.2731 C   0  0  0  0  0  0  0  0  0  0  0  0
  130.5996  138.6326  159.3345 C   0  0  0  0  0  0  0  0  0  0  0  0
  134.8516  140.5691  160.2870 C   0  0  0  0  0  0  0  0  0  0  0  0
  136.2032  139.9196  160.6095 C   0  0  0  0  0  0  0  0  0  0  0  0
  136.3587  139.8446  162.1300 C   0  0  0  0  0  0  0  0  0  0  0  0
  135.1859  138.8750  163.7541 H   0  0  0  0  0  0  0  0  0  0  0  0
  133.1548  138.7124  162.6719 H   0  0  0  0  0  0  0  0  0  0  0  0
  130.7616  139.0168  162.6967 H   0  0  0  0  0  0  0  0  0  0  0  0
  129.1364  137.1751  162.5929 H   0  0  0  0  0  0  0  0  0  0  0  0
  127.1386  132.9343  159.6355 H   0  0  0  0  0  0  0  0  0  0  0  0
  129.4661  133.4776  158.4049 H   0  0  0  0  0  0  0  0  0  0  0  0
  130.2087  135.0621  158.7304 H   0  0  0  0  0  0  0  0  0  0  0  0
  132.3199  133.9924  159.1210 H   0  0  0  0  0  0  0  0  0  0  0  0
  132.4469  132.6863  160.3235 H   0  0  0  0  0  0  0  0  0  0  0  0
  131.6200  130.4596  159.8311 H   0  0  0  0  0  0  0  0  0  0  0  0
  131.0950  128.8028  158.0869 H   0  0  0  0  0  0  0  0  0  0  0  0
  130.6846  129.5390  155.7732 H   0  0  0  0  0  0  0  0  0  0  0  0
  130.7903  131.9327  155.2058 H   0  0  0  0  0  0  0  0  0  0  0  0
  131.3062  133.5903  156.9519 H   0  0  0  0  0  0  0  0  0  0  0  0
  129.3949  137.1951  158.3156 H   0  0  0  0  0  0  0  0  0  0  0  0
  131.0118  139.0439  158.4250 H   0  0  0  0  0  0  0  0  0  0  0  0
  134.7605  141.5122  160.8260 H   0  0  0  0  0  0  0  0  0  0  0  0
  134.7778  140.7481  159.2144 H   0  0  0  0  0  0  0  0  0  0  0  0
  136.2368  138.9149  160.1879 H   0  0  0  0  0  0  0  0  0  0  0  0
  137.0087  140.5211  160.1881 H   0  0  0  0  0  0  0  0  0  0  0  0
  137.2224  139.2264  162.3749 H   0  0  0  0  0  0  0  0  0  0  0  0
  136.5109  140.8481  162.5276 H   0  0  0  0  0  0  0  0  0  0  0  0
  1 31  1  0
  1  2  2  0
  1 32  1  0
  2  3  1  0
  2 33  1  0
  3  4  1  6
  3  5  1  0
  3 29  1  0
  5  6  1  0
  6 28  1  0
  6  7  2  0
  7  8  1  0
  7 34  1  0
  8  9  2  0
  8 35  1  0
  9 10  1  0
  9 27  1  0
 10 15  1  0
 10 11  2  0
 11 12  1  0
 12 13  1  0
 12 14  1  0
 14 15  2  0
 14 36  1  0
 15 16  1  0
 16 17  1  0
 16 37  1  0
 16 38  1  0
 17 18  1  0
 17 19  1  0
 17 20  1  0
 20 21  1  0
 20 39  1  0
 20 40  1  0
 21 26  1  0
 21 22  2  0
 22 23  1  0
 22 41  1  0
 23 24  2  0
 23 42  1  0
 24 25  1  0
 24 43  1  0
 25 26  2  0
 25 44  1  0
 26 45  1  0
 27 28  2  0
 27 46  1  0
 28 47  1  0
 29 30  1  0
 29 48  1  0
 29 49  1  0
 30 31  1  0
 30 50  1  0
 30 51  1  0
 31 52  1  0
 31 53  1  0
M  CHG  1  17   1
M  END
>  <DOCK_score>  (1) 
-43.479988

>  <SMILES>  (1) 
C1=C[C@@H](Sc2ccc(-c3n[nH]cc3C[NH2+]Cc3ccccc3)cc2)CCC1

$$$$
