C[C@@H]([NH2+]Cc1c[nH]nc1-c1ccc(NC2CC(O)C2(C)C)o1)c1cc2ccccc2[nH]1
     RDKit          3D

 61 65  0  0  1  0  0  0  0  0999 V2000
  130.5423  139.3982  159.7415 C   0  0  0  0  0  0  0  0  0  0  0  0
  131.2539  138.2583  160.4729 C   0  0  1  0  0  0  0  0  0  0  0  0
  130.8207  138.1371  161.4657 H   0  0  0  0  0  0  0  0  0  0  0  0
  131.0916  137.0119  159.7125 N   0  0  0  0  0  0  0  0  0  0  0  0
  131.7526  136.9942  158.9504 H   0  0  0  0  0  0  0  0  0  0  0  0
  130.1532  136.9619  159.3450 H   0  0  0  0  0  0  0  0  0  0  0  0
  131.3328  135.8639  160.5968 C   0  0  0  0  0  0  0  0  0  0  0  0
  131.1663  134.5853  159.8168 C   0  0  0  0  0  0  0  0  0  0  0  0
  132.1362  133.9351  159.1391 C   0  0  0  0  0  0  0  0  0  0  0  0
  131.5894  132.8348  158.5782 N   0  0  0  0  0  0  0  0  0  0  0  0
  132.0567  132.1812  158.0347 H   0  0  0  0  0  0  0  0  0  0  0  0
  130.2294  132.8039  158.9120 N   0  0  0  0  0  0  0  0  0  0  0  0
  129.9676  133.8579  159.6596 C   0  0  0  0  0  0  0  0  0  0  0  0
  128.6526  134.2138  160.2316 C   0  0  0  0  0  0  0  0  0  0  0  0
  127.4991  133.5129  160.0725 C   0  0  0  0  0  0  0  0  0  0  0  0
  126.4999  134.2041  160.7858 C   0  0  0  0  0  0  0  0  0  0  0  0
  127.0892  135.2949  161.3361 C   0  0  0  0  0  0  0  0  0  0  0  0
  126.4549  136.2522  162.1194 N   0  0  0  0  0  0  0  0  0  0  0  0
  127.2165  137.3847  162.6518 C   0  0  1  0  0  0  0  0  0  0  0  0
  126.3417  138.4471  163.3383 C   0  0  0  0  0  0  0  0  0  0  0  0
  127.4474  138.5572  164.4014 C   0  0  2  0  0  0  0  0  0  0  0  0
  128.4538  139.5204  164.0829 O   0  0  0  0  0  0  0  0  0  0  0  0
  127.8382  137.1146  164.0321 C   0  0  0  0  0  0  0  0  0  0  0  0
  127.0936  136.0514  164.8422 C   0  0  0  0  0  0  0  0  0  0  0  0
  129.3494  136.8797  163.9883 C   0  0  0  0  0  0  0  0  0  0  0  0
  128.3896  135.2940  160.9969 O   0  0  0  0  0  0  0  0  0  0  0  0
  132.7203  138.5813  160.6005 C   0  0  0  0  0  0  0  0  0  0  0  0
  133.5553  138.7927  159.5709 C   0  0  0  0  0  0  0  0  0  0  0  0
  134.8748  139.0757  160.1409 C   0  0  0  0  0  0  0  0  0  0  0  0
  136.1251  139.3711  159.5940 C   0  0  0  0  0  0  0  0  0  0  0  0
  137.1933  139.5835  160.4190 C   0  0  0  0  0  0  0  0  0  0  0  0
  137.0456  139.5088  161.7974 C   0  0  0  0  0  0  0  0  0  0  0  0
  135.8211  139.2191  162.3580 C   0  0  0  0  0  0  0  0  0  0  0  0
  134.7199  138.9988  161.5368 C   0  0  0  0  0  0  0  0  0  0  0  0
  133.3992  138.6968  161.7829 N   0  0  0  0  0  0  0  0  0  0  0  0
  133.0082  138.5831  162.6634 H   0  0  0  0  0  0  0  0  0  0  0  0
  130.9754  139.5193  158.7487 H   0  0  0  0  0  0  0  0  0  0  0  0
  129.4817  139.1645  159.6492 H   0  0  0  0  0  0  0  0  0  0  0  0
  130.6628  140.3230  160.3058 H   0  0  0  0  0  0  0  0  0  0  0  0
  132.3465  135.9178  160.9938 H   0  0  0  0  0  0  0  0  0  0  0  0
  130.6187  135.8829  161.4200 H   0  0  0  0  0  0  0  0  0  0  0  0
  133.1694  134.2403  159.0609 H   0  0  0  0  0  0  0  0  0  0  0  0
  127.3731  132.6002  159.5090 H   0  0  0  0  0  0  0  0  0  0  0  0
  125.4612  133.9217  160.8736 H   0  0  0  0  0  0  0  0  0  0  0  0
  125.5080  136.1702  162.3134 H   0  0  0  0  0  0  0  0  0  0  0  0
  127.9199  137.7987  161.9294 H   0  0  0  0  0  0  0  0  0  0  0  0
  126.2119  139.3539  162.7475 H   0  0  0  0  0  0  0  0  0  0  0  0
  125.4013  138.0547  163.7253 H   0  0  0  0  0  0  0  0  0  0  0  0
  127.0672  138.6625  165.4175 H   0  0  0  0  0  0  0  0  0  0  0  0
  129.2829  139.3970  164.5647 H   0  0  0  0  0  0  0  0  0  0  0  0
  127.0962  135.1093  164.2942 H   0  0  0  0  0  0  0  0  0  0  0  0
  127.5889  135.9142  165.8034 H   0  0  0  0  0  0  0  0  0  0  0  0
  126.0652  136.3737  165.0061 H   0  0  0  0  0  0  0  0  0  0  0  0
  129.8422  137.7604  163.5763 H   0  0  0  0  0  0  0  0  0  0  0  0
  129.7180  136.6959  164.9974 H   0  0  0  0  0  0  0  0  0  0  0  0
  129.5647  136.0157  163.3597 H   0  0  0  0  0  0  0  0  0  0  0  0
  133.3020  138.7621  158.5215 H   0  0  0  0  0  0  0  0  0  0  0  0
  136.2475  139.4312  158.5226 H   0  0  0  0  0  0  0  0  0  0  0  0
  138.1603  139.8116  159.9955 H   0  0  0  0  0  0  0  0  0  0  0  0
  137.8990  139.6797  162.4365 H   0  0  0  0  0  0  0  0  0  0  0  0
  135.7162  139.1636  163.4316 H   0  0  0  0  0  0  0  0  0  0  0  0
  1  2  1  0
  1 37  1  0
  1 38  1  0
  1 39  1  0
  2  3  1  1
  2  4  1  0
  2 27  1  0
  4  5  1  0
  4  6  1  0
  4  7  1  0
  7  8  1  0
  7 40  1  0
  7 41  1  0
  8 13  1  0
  8  9  2  0
  9 10  1  0
  9 42  1  0
 10 11  1  0
 10 12  1  0
 12 13  2  0
 13 14  1  0
 14 26  1  0
 14 15  2  0
 15 16  1  0
 15 43  1  0
 16 17  2  0
 16 44  1  0
 17 18  1  0
 17 26  1  0
 18 19  1  0
 18 45  1  0
 19 23  1  0
 19 20  1  0
 19 46  1  6
 20 21  1  0
 20 47  1  0
 20 48  1  0
 21 22  1  0
 21 23  1  0
 21 49  1  1
 22 50  1  0
 23 24  1  0
 23 25  1  0
 24 51  1  0
 24 52  1  0
 24 53  1  0
 25 54  1  0
 25 55  1  0
 25 56  1  0
 27 35  1  0
 27 28  2  0
 28 29  1  0
 28 57  1  0
 29 34  2  0
 29 30  1  0
 30 31  2  0
 30 58  1  0
 31 32  1  0
 31 59  1  0
 32 33  2  0
 32 60  1  0
 33 34  1  0
 33 61  1  0
 34 35  1  0
 35 36  1  0
M  CHG  1   4   1
M  END
>  <DOCK_score>  (1) 
-49.940651

>  <SMILES>  (1) 
C[C@@H]([NH2+]Cc1c[nH]nc1-c1ccc(NC2CC(O)C2(C)C)o1)c1cc2ccccc2[nH]1

$$$$
