Nc1ccc(-c2c[nH]c(Nc3ccc(O)c(C4CCCCC4)c3)[nH+]2)cc1
     RDKit          3D

 51 54  0  0  1  0  0  0  0  0999 V2000
  131.2670  129.6951  151.9211 N   0  0  0  0  0  0  0  0  0  0  0  0
  130.9786  130.3581  153.1163 C   0  0  0  0  0  0  0  0  0  0  0  0
  130.2032  131.5116  153.1002 C   0  0  0  0  0  0  0  0  0  0  0  0
  129.9173  132.1677  154.2788 C   0  0  0  0  0  0  0  0  0  0  0  0
  130.4061  131.6732  155.4870 C   0  0  0  0  0  0  0  0  0  0  0  0
  130.0997  132.3774  156.7564 C   0  0  0  0  0  0  0  0  0  0  0  0
  129.4334  131.8570  157.8167 C   0  0  0  0  0  0  0  0  0  0  0  0
  129.3718  132.8433  158.7720 N   0  0  0  0  0  0  0  0  0  0  0  0
  128.9556  132.7724  159.6453 H   0  0  0  0  0  0  0  0  0  0  0  0
  130.0031  133.9379  158.2662 C   0  0  0  0  0  0  0  0  0  0  0  0
  130.1615  135.1504  158.9166 N   0  0  0  0  0  0  0  0  0  0  0  0
  129.2039  135.5772  159.8446 C   0  0  0  0  0  0  0  0  0  0  0  0
  127.8865  135.7650  159.4471 C   0  0  0  0  0  0  0  0  0  0  0  0
  126.9429  136.1865  160.3627 C   0  0  0  0  0  0  0  0  0  0  0  0
  127.3095  136.4174  161.6809 C   0  0  0  0  0  0  0  0  0  0  0  0
  126.3785  136.8274  162.5832 O   0  0  0  0  0  0  0  0  0  0  0  0
  128.6259  136.2352  162.0774 C   0  0  0  0  0  0  0  0  0  0  0  0
  129.0240  136.4913  163.5081 C   0  0  0  0  0  0  0  0  0  0  0  0
  128.7283  137.9489  163.8667 C   0  0  0  0  0  0  0  0  0  0  0  0
  129.1324  138.2090  165.3192 C   0  0  0  0  0  0  0  0  0  0  0  0
  128.3368  137.2850  166.2433 C   0  0  0  0  0  0  0  0  0  0  0  0
  128.6325  135.8273  165.8848 C   0  0  0  0  0  0  0  0  0  0  0  0
  128.2283  135.5672  164.4322 C   0  0  0  0  0  0  0  0  0  0  0  0
  129.5712  135.8137  161.1627 C   0  0  0  0  0  0  0  0  0  0  0  0
  130.4316  133.6569  157.0594 N   0  0  0  0  0  0  0  0  0  0  0  0
  130.9116  134.2663  156.4770 H   0  0  0  0  0  0  0  0  0  0  0  0
  131.1879  130.5192  155.5001 C   0  0  0  0  0  0  0  0  0  0  0  0
  131.4671  129.8634  154.3196 C   0  0  0  0  0  0  0  0  0  0  0  0
  130.9262  130.0398  151.0807 H   0  0  0  0  0  0  0  0  0  0  0  0
  131.8081  128.8902  151.9313 H   0  0  0  0  0  0  0  0  0  0  0  0
  129.8247  131.8944  152.1639 H   0  0  0  0  0  0  0  0  0  0  0  0
  129.3146  133.0639  154.2660 H   0  0  0  0  0  0  0  0  0  0  0  0
  129.0282  130.8589  157.8953 H   0  0  0  0  0  0  0  0  0  0  0  0
  130.9359  135.7038  158.7293 H   0  0  0  0  0  0  0  0  0  0  0  0
  127.6001  135.5811  158.4221 H   0  0  0  0  0  0  0  0  0  0  0  0
  125.9184  136.3322  160.0540 H   0  0  0  0  0  0  0  0  0  0  0  0
  125.4908  136.9299  162.2134 H   0  0  0  0  0  0  0  0  0  0  0  0
  130.0896  136.2962  163.6292 H   0  0  0  0  0  0  0  0  0  0  0  0
  127.6627  138.1439  163.7456 H   0  0  0  0  0  0  0  0  0  0  0  0
  129.2952  138.6072  163.2084 H   0  0  0  0  0  0  0  0  0  0  0  0
  130.1981  138.0140  165.4404 H   0  0  0  0  0  0  0  0  0  0  0  0
  128.9219  139.2474  165.5747 H   0  0  0  0  0  0  0  0  0  0  0  0
  128.6246  137.4701  167.2781 H   0  0  0  0  0  0  0  0  0  0  0  0
  127.2712  137.4800  166.1222 H   0  0  0  0  0  0  0  0  0  0  0  0
  129.6981  135.6323  166.0058 H   0  0  0  0  0  0  0  0  0  0  0  0
  128.0655  135.1690  166.5429 H   0  0  0  0  0  0  0  0  0  0  0  0
  128.4389  134.5288  164.1766 H   0  0  0  0  0  0  0  0  0  0  0  0
  127.1627  135.7622  164.3110 H   0  0  0  0  0  0  0  0  0  0  0  0
  130.5954  135.6683  161.4725 H   0  0  0  0  0  0  0  0  0  0  0  0
  131.5717  130.1370  156.4344 H   0  0  0  0  0  0  0  0  0  0  0  0
  132.0694  128.9670  154.3297 H   0  0  0  0  0  0  0  0  0  0  0  0
  1  2  1  0
  1 29  1  0
  1 30  1  0
  2 28  2  0
  2  3  1  0
  3  4  2  0
  3 31  1  0
  4  5  1  0
  4 32  1  0
  5  6  1  0
  5 27  2  0
  6 25  1  0
  6  7  2  0
  7  8  1  0
  7 33  1  0
  8  9  1  0
  8 10  1  0
 10 11  1  0
 10 25  2  0
 11 12  1  0
 11 34  1  0
 12 24  1  0
 12 13  2  0
 13 14  1  0
 13 35  1  0
 14 15  2  0
 14 36  1  0
 15 16  1  0
 15 17  1  0
 16 37  1  0
 17 18  1  0
 17 24  2  0
 18 23  1  0
 18 19  1  0
 18 38  1  0
 19 20  1  0
 19 39  1  0
 19 40  1  0
 20 21  1  0
 20 41  1  0
 20 42  1  0
 21 22  1  0
 21 43  1  0
 21 44  1  0
 22 23  1  0
 22 45  1  0
 22 46  1  0
 23 47  1  0
 23 48  1  0
 24 49  1  0
 25 26  1  0
 27 28  1  0
 27 50  1  0
 28 51  1  0
M  CHG  1  25   1
M  END
>  <DOCK_score>  (1) 
-54.250538

>  <SMILES>  (1) 
Nc1ccc(-c2c[nH]c(Nc3ccc(O)c(C4CCCCC4)c3)[nH+]2)cc1

$$$$
