Oc1cccc(N2CC[NH+](C(c3ccccc3)c3ccccc3)CC2)c1-c1cccc2ccccc12
     RDKit          3D

 67 72  0  0  0  0  0  0  0  0999 V2000
  135.9765  140.7486  162.9026 O   0  0  0  0  0  0  0  0  0  0  0  0
  135.4025  140.2299  161.7860 C   0  0  0  0  0  0  0  0  0  0  0  0
  135.7260  140.7387  160.5385 C   0  0  0  0  0  0  0  0  0  0  0  0
  135.1429  140.2136  159.3998 C   0  0  0  0  0  0  0  0  0  0  0  0
  134.2331  139.1772  159.4939 C   0  0  0  0  0  0  0  0  0  0  0  0
  133.8972  138.6547  160.7343 C   0  0  0  0  0  0  0  0  0  0  0  0
  132.9796  137.6091  160.8279 N   0  0  0  0  0  0  0  0  0  0  0  0
  133.4888  136.4007  160.1641 C   0  0  0  0  0  0  0  0  0  0  0  0
  132.4811  135.2625  160.3404 C   0  0  0  0  0  0  0  0  0  0  0  0
  131.1914  135.6555  159.7578 N   0  0  0  0  0  0  0  0  0  0  0  0
  131.3138  135.8603  158.7774 H   0  0  0  0  0  0  0  0  0  0  0  0
  130.2296  134.5558  159.9112 C   0  0  0  0  0  0  0  0  0  0  0  0
  128.9062  134.9588  159.3135 C   0  0  0  0  0  0  0  0  0  0  0  0
  127.7307  134.4410  159.8244 C   0  0  0  0  0  0  0  0  0  0  0  0
  126.5166  134.8145  159.2793 C   0  0  0  0  0  0  0  0  0  0  0  0
  126.4784  135.6975  158.2164 C   0  0  0  0  0  0  0  0  0  0  0  0
  127.6542  136.2110  157.7020 C   0  0  0  0  0  0  0  0  0  0  0  0
  128.8681  135.8418  158.2505 C   0  0  0  0  0  0  0  0  0  0  0  0
  130.7490  133.3316  159.2023 C   0  0  0  0  0  0  0  0  0  0  0  0
  130.4278  133.1127  157.8758 C   0  0  0  0  0  0  0  0  0  0  0  0
  130.9082  131.9921  157.2242 C   0  0  0  0  0  0  0  0  0  0  0  0
  131.7013  131.0853  157.9020 C   0  0  0  0  0  0  0  0  0  0  0  0
  132.0183  131.3016  159.2301 C   0  0  0  0  0  0  0  0  0  0  0  0
  131.5421  132.4248  159.8802 C   0  0  0  0  0  0  0  0  0  0  0  0
  130.6839  136.8491  160.4472 C   0  0  0  0  0  0  0  0  0  0  0  0
  131.6765  138.0004  160.2718 C   0  0  0  0  0  0  0  0  0  0  0  0
  134.4832  139.1814  161.8926 C   0  0  0  0  0  0  0  0  0  0  0  0
  134.1321  138.6316  163.2206 C   0  0  0  0  0  0  0  0  0  0  0  0
  132.8234  138.6724  163.6711 C   0  0  0  0  0  0  0  0  0  0  0  0
  132.4853  138.1533  164.9154 C   0  0  0  0  0  0  0  0  0  0  0  0
  133.4285  137.6013  165.7286 C   0  0  0  0  0  0  0  0  0  0  0  0
  134.7701  137.5438  165.3137 C   0  0  0  0  0  0  0  0  0  0  0  0
  135.7621  136.9793  166.1343 C   0  0  0  0  0  0  0  0  0  0  0  0
  137.0520  136.9402  165.7017 C   0  0  0  0  0  0  0  0  0  0  0  0
  137.4059  137.4521  164.4552 C   0  0  0  0  0  0  0  0  0  0  0  0
  136.4703  138.0057  163.6342 C   0  0  0  0  0  0  0  0  0  0  0  0
  135.1314  138.0632  164.0466 C   0  0  0  0  0  0  0  0  0  0  0  0
  135.6879  140.3287  163.7245 H   0  0  0  0  0  0  0  0  0  0  0  0
  136.4359  141.5483  160.4549 H   0  0  0  0  0  0  0  0  0  0  0  0
  135.3965  140.6188  158.4313 H   0  0  0  0  0  0  0  0  0  0  0  0
  133.7822  138.7735  158.5994 H   0  0  0  0  0  0  0  0  0  0  0  0
  133.6289  136.6009  159.1019 H   0  0  0  0  0  0  0  0  0  0  0  0
  134.4416  136.1151  160.6096 H   0  0  0  0  0  0  0  0  0  0  0  0
  132.3514  135.0533  161.4024 H   0  0  0  0  0  0  0  0  0  0  0  0
  132.8503  134.3691  159.8367 H   0  0  0  0  0  0  0  0  0  0  0  0
  130.0974  134.3338  160.9703 H   0  0  0  0  0  0  0  0  0  0  0  0
  127.7607  133.7478  160.6520 H   0  0  0  0  0  0  0  0  0  0  0  0
  125.5979  134.4129  159.6810 H   0  0  0  0  0  0  0  0  0  0  0  0
  125.5300  135.9856  157.7876 H   0  0  0  0  0  0  0  0  0  0  0  0
  127.6244  136.9006  156.8714 H   0  0  0  0  0  0  0  0  0  0  0  0
  129.7867  136.2427  157.8484 H   0  0  0  0  0  0  0  0  0  0  0  0
  129.8045  133.8188  157.3475 H   0  0  0  0  0  0  0  0  0  0  0  0
  130.6603  131.8230  156.1867 H   0  0  0  0  0  0  0  0  0  0  0  0
  132.0731  130.2076  157.3941 H   0  0  0  0  0  0  0  0  0  0  0  0
  132.6376  130.5929  159.7597 H   0  0  0  0  0  0  0  0  0  0  0  0
  131.7895  132.5935  160.9179 H   0  0  0  0  0  0  0  0  0  0  0  0
  130.5634  136.6319  161.5086 H   0  0  0  0  0  0  0  0  0  0  0  0
  129.7207  137.1320  160.0227 H   0  0  0  0  0  0  0  0  0  0  0  0
  131.3074  138.8820  160.7959 H   0  0  0  0  0  0  0  0  0  0  0  0
  131.7870  138.2274  159.2113 H   0  0  0  0  0  0  0  0  0  0  0  0
  132.0568  139.1082  163.0475 H   0  0  0  0  0  0  0  0  0  0  0  0
  131.4576  138.1923  165.2449 H   0  0  0  0  0  0  0  0  0  0  0  0
  133.1452  137.2077  166.6936 H   0  0  0  0  0  0  0  0  0  0  0  0
  135.5020  136.5787  167.1030 H   0  0  0  0  0  0  0  0  0  0  0  0
  137.8125  136.5057  166.3337 H   0  0  0  0  0  0  0  0  0  0  0  0
  138.4365  137.4091  164.1349 H   0  0  0  0  0  0  0  0  0  0  0  0
  136.7585  138.3987  162.6705 H   0  0  0  0  0  0  0  0  0  0  0  0
  1  2  1  0
  1 38  1  0
  2 27  2  0
  2  3  1  0
  3  4  2  0
  3 39  1  0
  4  5  1  0
  4 40  1  0
  5  6  2  0
  5 41  1  0
  6  7  1  0
  6 27  1  0
  7 26  1  0
  7  8  1  0
  8  9  1  0
  8 42  1  0
  8 43  1  0
  9 10  1  0
  9 44  1  0
  9 45  1  0
 10 11  1  0
 10 12  1  0
 10 25  1  0
 12 13  1  0
 12 19  1  0
 12 46  1  0
 13 18  1  0
 13 14  2  0
 14 15  1  0
 14 47  1  0
 15 16  2  0
 15 48  1  0
 16 17  1  0
 16 49  1  0
 17 18  2  0
 17 50  1  0
 18 51  1  0
 19 24  1  0
 19 20  2  0
 20 21  1  0
 20 52  1  0
 21 22  2  0
 21 53  1  0
 22 23  1  0
 22 54  1  0
 23 24  2  0
 23 55  1  0
 24 56  1  0
 25 26  1  0
 25 57  1  0
 25 58  1  0
 26 59  1  0
 26 60  1  0
 27 28  1  0
 28 37  1  0
 28 29  2  0
 29 30  1  0
 29 61  1  0
 30 31  2  0
 30 62  1  0
 31 32  1  0
 31 63  1  0
 32 37  2  0
 32 33  1  0
 33 34  2  0
 33 64  1  0
 34 35  1  0
 34 65  1  0
 35 36  2  0
 35 66  1  0
 36 37  1  0
 36 67  1  0
M  CHG  1  10   1
M  END
>  <DOCK_score>  (1) 
-56.2216

>  <SMILES>  (1) 
Oc1cccc(N2CC[NH+](C(c3ccccc3)c3ccccc3)CC2)c1-c1cccc2ccccc12

$$$$
