c1ccc([C@H](c2ccccc2C2CCC2)[NH+]2CCN(c3cccc4cc[nH]c34)CC2)cc1
     RDKit          3D

 64 69  0  0  1  0  0  0  0  0999 V2000
  131.6952  130.9747  157.7726 C   0  0  0  0  0  0  0  0  0  0  0  0
  130.9686  131.8977  157.0439 C   0  0  0  0  0  0  0  0  0  0  0  0
  130.4389  133.0103  157.6702 C   0  0  0  0  0  0  0  0  0  0  0  0
  130.6351  133.1996  159.0255 C   0  0  0  0  0  0  0  0  0  0  0  0
  130.0575  134.4125  159.7083 C   0  0  2  0  0  0  0  0  0  0  0  0
  129.8340  134.1723  160.7478 H   0  0  0  0  0  0  0  0  0  0  0  0
  128.7912  134.8292  159.0055 C   0  0  0  0  0  0  0  0  0  0  0  0
  128.8461  135.7308  157.9590 C   0  0  0  0  0  0  0  0  0  0  0  0
  127.6848  136.1127  157.3141 C   0  0  0  0  0  0  0  0  0  0  0  0
  126.4679  135.5932  157.7163 C   0  0  0  0  0  0  0  0  0  0  0  0
  126.4132  134.6916  158.7621 C   0  0  0  0  0  0  0  0  0  0  0  0
  127.5755  134.3056  159.4037 C   0  0  0  0  0  0  0  0  0  0  0  0
  127.5165  133.3181  160.5405 C   0  0  0  0  0  0  0  0  0  0  0  0
  126.4783  132.2024  160.3340 C   0  0  0  0  0  0  0  0  0  0  0  0
  126.1433  132.3456  161.8280 C   0  0  0  0  0  0  0  0  0  0  0  0
  126.6561  133.7917  161.7238 C   0  0  0  0  0  0  0  0  0  0  0  0
  131.0300  135.5123  159.6580 N   0  0  0  0  0  0  0  0  0  0  0  0
  131.2366  135.7343  158.6957 H   0  0  0  0  0  0  0  0  0  0  0  0
  130.4664  136.6946  160.3229 C   0  0  0  0  0  0  0  0  0  0  0  0
  131.4718  137.8463  160.2542 C   0  0  0  0  0  0  0  0  0  0  0  0
  132.7217  137.4417  160.9131 N   0  0  0  0  0  0  0  0  0  0  0  0
  133.6476  138.4895  160.9178 C   0  0  0  0  0  0  0  0  0  0  0  0
  134.0893  139.0330  159.7239 C   0  0  0  0  0  0  0  0  0  0  0  0
  135.0119  140.0692  159.7187 C   0  0  0  0  0  0  0  0  0  0  0  0
  135.4916  140.5790  160.8922 C   0  0  0  0  0  0  0  0  0  0  0  0
  135.0561  140.0510  162.1109 C   0  0  0  0  0  0  0  0  0  0  0  0
  135.3550  140.3493  163.5135 C   0  0  0  0  0  0  0  0  0  0  0  0
  134.6265  139.5031  164.2592 C   0  0  0  0  0  0  0  0  0  0  0  0
  133.8861  138.6876  163.4488 N   0  0  0  0  0  0  0  0  0  0  0  0
  133.2822  137.9941  163.7577 H   0  0  0  0  0  0  0  0  0  0  0  0
  134.1265  138.9978  162.1275 C   0  0  0  0  0  0  0  0  0  0  0  0
  133.2848  136.2440  160.2738 C   0  0  0  0  0  0  0  0  0  0  0  0
  132.2645  135.1056  160.3423 C   0  0  0  0  0  0  0  0  0  0  0  0
  131.3657  132.2791  159.7532 C   0  0  0  0  0  0  0  0  0  0  0  0
  131.8923  131.1645  159.1276 C   0  0  0  0  0  0  0  0  0  0  0  0
  132.1094  130.1056  157.2832 H   0  0  0  0  0  0  0  0  0  0  0  0
  130.8151  131.7497  155.9851 H   0  0  0  0  0  0  0  0  0  0  0  0
  129.8715  133.7316  157.1009 H   0  0  0  0  0  0  0  0  0  0  0  0
  129.7964  136.1364  157.6450 H   0  0  0  0  0  0  0  0  0  0  0  0
  127.7276  136.8171  156.4966 H   0  0  0  0  0  0  0  0  0  0  0  0
  125.5605  135.8919  157.2127 H   0  0  0  0  0  0  0  0  0  0  0  0
  125.4630  134.2856  159.0758 H   0  0  0  0  0  0  0  0  0  0  0  0
  128.5001  132.9521  160.8347 H   0  0  0  0  0  0  0  0  0  0  0  0
  125.6587  132.4856  159.6735 H   0  0  0  0  0  0  0  0  0  0  0  0
  126.9181  131.2392  160.0755 H   0  0  0  0  0  0  0  0  0  0  0  0
  126.7509  131.7124  162.4744 H   0  0  0  0  0  0  0  0  0  0  0  0
  125.0777  132.2749  162.0466 H   0  0  0  0  0  0  0  0  0  0  0  0
  127.2393  134.1115  162.5873 H   0  0  0  0  0  0  0  0  0  0  0  0
  125.8850  134.5093  161.4434 H   0  0  0  0  0  0  0  0  0  0  0  0
  130.2550  136.4586  161.3658 H   0  0  0  0  0  0  0  0  0  0  0  0
  129.5436  136.9876  159.8223 H   0  0  0  0  0  0  0  0  0  0  0  0
  131.0598  138.7192  160.7606 H   0  0  0  0  0  0  0  0  0  0  0  0
  131.6732  138.0916  159.2115 H   0  0  0  0  0  0  0  0  0  0  0  0
  133.7160  138.6439  158.7881 H   0  0  0  0  0  0  0  0  0  0  0  0
  135.3505  140.4797  158.7789 H   0  0  0  0  0  0  0  0  0  0  0  0
  136.2059  141.3889  160.8781 H   0  0  0  0  0  0  0  0  0  0  0  0
  136.0326  141.1068  163.8787 H   0  0  0  0  0  0  0  0  0  0  0  0
  134.6253  139.4713  165.3387 H   0  0  0  0  0  0  0  0  0  0  0  0
  133.5160  136.4629  159.2314 H   0  0  0  0  0  0  0  0  0  0  0  0
  134.1955  135.9480  160.7944 H   0  0  0  0  0  0  0  0  0  0  0  0
  132.0437  134.8777  161.3850 H   0  0  0  0  0  0  0  0  0  0  0  0
  132.6747  134.2204  159.8560 H   0  0  0  0  0  0  0  0  0  0  0  0
  131.5228  132.4292  160.8111 H   0  0  0  0  0  0  0  0  0  0  0  0
  132.4603  130.4435  159.6969 H   0  0  0  0  0  0  0  0  0  0  0  0
  1 35  2  0
  1  2  1  0
  1 36  1  0
  2  3  2  0
  2 37  1  0
  3  4  1  0
  3 38  1  0
  4  5  1  0
  4 34  2  0
  5  6  1  1
  5  7  1  0
  5 17  1  0
  7 12  1  0
  7  8  2  0
  8  9  1  0
  8 39  1  0
  9 10  2  0
  9 40  1  0
 10 11  1  0
 10 41  1  0
 11 12  2  0
 11 42  1  0
 12 13  1  0
 13 16  1  0
 13 14  1  0
 13 43  1  0
 14 15  1  0
 14 44  1  0
 14 45  1  0
 15 16  1  0
 15 46  1  0
 15 47  1  0
 16 48  1  0
 16 49  1  0
 17 18  1  0
 17 33  1  0
 17 19  1  0
 19 20  1  0
 19 50  1  0
 19 51  1  0
 20 21  1  0
 20 52  1  0
 20 53  1  0
 21 22  1  0
 21 32  1  0
 22 31  1  0
 22 23  2  0
 23 24  1  0
 23 54  1  0
 24 25  2  0
 24 55  1  0
 25 26  1  0
 25 56  1  0
 26 31  2  0
 26 27  1  0
 27 28  2  0
 27 57  1  0
 28 29  1  0
 28 58  1  0
 29 30  1  0
 29 31  1  0
 32 33  1  0
 32 59  1  0
 32 60  1  0
 33 61  1  0
 33 62  1  0
 34 35  1  0
 34 63  1  0
 35 64  1  0
M  CHG  1  17   1
M  END
>  <DOCK_score>  (1) 
-59.250004

>  <SMILES>  (1) 
c1ccc([C@H](c2ccccc2C2CCC2)[NH+]2CCN(c3cccc4cc[nH]c34)CC2)cc1

$$$$
