CC([NH+]=C(NC[C@@H]1CC(O)C1(C)C)N[C@@H]1Cc2ccccc2[C@@H]1C)c1ccccc1
     RDKit          3D

 66 69  0  0  1  0  0  0  0  0999 V2000
  131.5951  133.7996  159.1387 C   0  0  0  0  0  0  0  0  0  0  0  0
  130.7605  134.5503  160.1783 C   0  0  1  0  0  0  0  0  0  0  0  0
  131.3309  135.8824  160.3931 N   0  0  0  0  0  0  0  0  0  0  0  0
  132.1215  136.1564  159.9024 H   0  0  0  0  0  0  0  0  0  0  0  0
  130.7762  136.6995  161.2437 C   0  0  0  0  0  0  0  0  0  0  0  0
  129.6556  136.3113  161.9395 N   0  0  0  0  0  0  0  0  0  0  0  0
  129.0323  137.2298  162.8955 C   0  0  0  0  0  0  0  0  0  0  0  0
  128.3643  136.4265  164.0131 C   0  0  2  0  0  0  0  0  0  0  0  0
  129.0714  136.0831  164.7684 H   0  0  0  0  0  0  0  0  0  0  0  0
  127.4251  135.3219  163.5011 C   0  0  0  0  0  0  0  0  0  0  0  0
  126.4723  135.7112  164.6437 C   0  0  2  0  0  0  0  0  0  0  0  0
  125.0938  135.7025  164.2677 O   0  0  0  0  0  0  0  0  0  0  0  0
  127.1161  137.1070  164.5994 C   0  0  0  0  0  0  0  0  0  0  0  0
  127.3450  137.7206  165.9823 C   0  0  0  0  0  0  0  0  0  0  0  0
  126.4287  138.0684  163.6277 C   0  0  0  0  0  0  0  0  0  0  0  0
  131.3116  137.9497  161.4453 N   0  0  0  0  0  0  0  0  0  0  0  0
  132.7512  138.1653  161.2800 C   0  0  2  0  0  0  0  0  0  0  0  0
  133.3073  137.2595  161.5217 H   0  0  0  0  0  0  0  0  0  0  0  0
  133.2312  139.3507  162.1442 C   0  0  0  0  0  0  0  0  0  0  0  0
  134.3110  140.0258  161.3205 C   0  0  0  0  0  0  0  0  0  0  0  0
  135.2954  140.9242  161.6976 C   0  0  0  0  0  0  0  0  0  0  0  0
  136.1868  141.4115  160.7621 C   0  0  0  0  0  0  0  0  0  0  0  0
  136.0969  141.0022  159.4447 C   0  0  0  0  0  0  0  0  0  0  0  0
  135.1160  140.1065  159.0667 C   0  0  0  0  0  0  0  0  0  0  0  0
  134.2211  139.6165  160.0033 C   0  0  0  0  0  0  0  0  0  0  0  0
  133.0738  138.6415  159.8477 C   0  0  2  0  0  0  0  0  0  0  0  0
  133.3745  137.7973  159.2272 H   0  0  0  0  0  0  0  0  0  0  0  0
  131.8600  139.3435  159.2356 C   0  0  0  0  0  0  0  0  0  0  0  0
  129.3435  134.6843  159.6832 C   0  0  0  0  0  0  0  0  0  0  0  0
  128.9749  135.7848  158.9323 C   0  0  0  0  0  0  0  0  0  0  0  0
  127.6752  135.9076  158.4778 C   0  0  0  0  0  0  0  0  0  0  0  0
  126.7442  134.9294  158.7737 C   0  0  0  0  0  0  0  0  0  0  0  0
  127.1115  133.8315  159.5291 C   0  0  0  0  0  0  0  0  0  0  0  0
  128.4122  133.7070  159.9804 C   0  0  0  0  0  0  0  0  0  0  0  0
  131.2372  132.7731  159.0578 H   0  0  0  0  0  0  0  0  0  0  0  0
  131.5017  134.2943  158.1720 H   0  0  0  0  0  0  0  0  0  0  0  0
  132.6410  133.7966  159.4458 H   0  0  0  0  0  0  0  0  0  0  0  0
  130.7664  133.9967  161.1173 H   0  0  0  0  0  0  0  0  0  0  0  0
  129.2779  135.4293  161.7973 H   0  0  0  0  0  0  0  0  0  0  0  0
  129.7942  137.8821  163.3222 H   0  0  0  0  0  0  0  0  0  0  0  0
  128.2826  137.8332  162.3837 H   0  0  0  0  0  0  0  0  0  0  0  0
  127.0199  135.5186  162.5086 H   0  0  0  0  0  0  0  0  0  0  0  0
  127.8382  134.3178  163.5982 H   0  0  0  0  0  0  0  0  0  0  0  0
  126.6612  135.1724  165.5724 H   0  0  0  0  0  0  0  0  0  0  0  0
  124.9242  136.0635  163.3867 H   0  0  0  0  0  0  0  0  0  0  0  0
  128.1281  138.4762  165.9194 H   0  0  0  0  0  0  0  0  0  0  0  0
  126.4218  138.1824  166.3321 H   0  0  0  0  0  0  0  0  0  0  0  0
  127.6482  136.9401  166.6803 H   0  0  0  0  0  0  0  0  0  0  0  0
  126.1142  137.5226  162.7383 H   0  0  0  0  0  0  0  0  0  0  0  0
  125.5570  138.5106  164.1099 H   0  0  0  0  0  0  0  0  0  0  0  0
  127.1254  138.8568  163.3428 H   0  0  0  0  0  0  0  0  0  0  0  0
  130.7361  138.6889  161.6969 H   0  0  0  0  0  0  0  0  0  0  0  0
  132.4088  140.0422  162.3279 H   0  0  0  0  0  0  0  0  0  0  0  0
  133.6405  138.9896  163.0877 H   0  0  0  0  0  0  0  0  0  0  0  0
  135.3663  141.2444  162.7265 H   0  0  0  0  0  0  0  0  0  0  0  0
  136.9532  142.1120  161.0594 H   0  0  0  0  0  0  0  0  0  0  0  0
  136.7933  141.3820  158.7118 H   0  0  0  0  0  0  0  0  0  0  0  0
  135.0466  139.7869  158.0374 H   0  0  0  0  0  0  0  0  0  0  0  0
  131.5932  140.2063  159.8459 H   0  0  0  0  0  0  0  0  0  0  0  0
  132.1024  139.6738  158.2256 H   0  0  0  0  0  0  0  0  0  0  0  0
  131.0195  138.6504  159.1993 H   0  0  0  0  0  0  0  0  0  0  0  0
  129.7025  136.5487  158.7005 H   0  0  0  0  0  0  0  0  0  0  0  0
  127.3872  136.7673  157.8911 H   0  0  0  0  0  0  0  0  0  0  0  0
  125.7288  135.0253  158.4186 H   0  0  0  0  0  0  0  0  0  0  0  0
  126.3831  133.0696  159.7641 H   0  0  0  0  0  0  0  0  0  0  0  0
  128.7001  132.8474  160.5673 H   0  0  0  0  0  0  0  0  0  0  0  0
  1  2  1  0
  1 35  1  0
  1 36  1  0
  1 37  1  0
  2  3  1  0
  2 29  1  0
  2 38  1  1
  3  4  1  0
  5  3  2  0
  5  6  1  0
  5 16  1  0
  6  7  1  0
  6 39  1  0
  7  8  1  0
  7 40  1  0
  7 41  1  0
  8  9  1  1
  8 13  1  0
  8 10  1  0
 10 11  1  0
 10 42  1  0
 10 43  1  0
 11 12  1  0
 11 13  1  0
 11 44  1  1
 12 45  1  0
 13 14  1  0
 13 15  1  0
 14 46  1  0
 14 47  1  0
 14 48  1  0
 15 49  1  0
 15 50  1  0
 15 51  1  0
 16 17  1  0
 16 52  1  0
 17 18  1  1
 17 26  1  0
 17 19  1  0
 19 20  1  0
 19 53  1  0
 19 54  1  0
 20 25  2  0
 20 21  1  0
 21 22  2  0
 21 55  1  0
 22 23  1  0
 22 56  1  0
 23 24  2  0
 23 57  1  0
 24 25  1  0
 24 58  1  0
 25 26  1  0
 26 27  1  6
 26 28  1  0
 28 59  1  0
 28 60  1  0
 28 61  1  0
 29 34  1  0
 29 30  2  0
 30 31  1  0
 30 62  1  0
 31 32  2  0
 31 63  1  0
 32 33  1  0
 32 64  1  0
 33 34  2  0
 33 65  1  0
 34 66  1  0
M  CHG  1   3   1
M  END
>  <DOCK_score>  (1) 
-47.969757

>  <SMILES>  (1) 
CC([NH+]=C(NC[C@@H]1CC(O)C1(C)C)N[C@@H]1Cc2ccccc2[C@@H]1C)c1ccccc1

$$$$
