FC(F)[C@H](Nc1[nH]cc(-c2ccc(-c3ccccc3)cc2)[nH+]1)C1CCOCC1
     RDKit          3D

 52 55  0  0  1  0  0  0  0  0999 V2000
  133.8333  136.2578  161.6055 F   0  0  0  0  0  0  0  0  0  0  0  0
  132.5755  136.8084  161.8738 C   0  0  0  0  0  0  0  0  0  0  0  0
  132.4576  138.0413  161.2230 F   0  0  0  0  0  0  0  0  0  0  0  0
  131.4856  135.8598  161.3705 C   0  0  2  0  0  0  0  0  0  0  0  0
  131.5773  134.8994  161.8775 H   0  0  0  0  0  0  0  0  0  0  0  0
  131.6358  135.6660  159.9262 N   0  0  0  0  0  0  0  0  0  0  0  0
  131.2457  134.4723  159.3438 C   0  0  0  0  0  0  0  0  0  0  0  0
  130.7170  133.4047  160.0021 N   0  0  0  0  0  0  0  0  0  0  0  0
  130.5472  133.3441  160.9552 H   0  0  0  0  0  0  0  0  0  0  0  0
  130.4680  132.4292  159.0679 C   0  0  0  0  0  0  0  0  0  0  0  0
  130.8514  132.9281  157.8660 C   0  0  0  0  0  0  0  0  0  0  0  0
  130.7684  132.2258  156.5630 C   0  0  0  0  0  0  0  0  0  0  0  0
  130.0041  132.7644  155.5278 C   0  0  0  0  0  0  0  0  0  0  0  0
  129.9274  132.1121  154.3172 C   0  0  0  0  0  0  0  0  0  0  0  0
  130.6141  130.9128  154.1265 C   0  0  0  0  0  0  0  0  0  0  0  0
  130.5309  130.2102  152.8231 C   0  0  0  0  0  0  0  0  0  0  0  0
  130.6438  128.8223  152.7681 C   0  0  0  0  0  0  0  0  0  0  0  0
  130.5615  128.1735  151.5529 C   0  0  0  0  0  0  0  0  0  0  0  0
  130.3769  128.8989  150.3896 C   0  0  0  0  0  0  0  0  0  0  0  0
  130.2693  130.2772  150.4374 C   0  0  0  0  0  0  0  0  0  0  0  0
  130.3453  130.9364  151.6475 C   0  0  0  0  0  0  0  0  0  0  0  0
  131.3737  130.3719  155.1630 C   0  0  0  0  0  0  0  0  0  0  0  0
  131.4549  131.0267  156.3719 C   0  0  0  0  0  0  0  0  0  0  0  0
  131.3300  134.1817  158.0686 N   0  0  0  0  0  0  0  0  0  0  0  0
  131.6767  134.7696  157.3794 H   0  0  0  0  0  0  0  0  0  0  0  0
  130.1101  136.4622  161.6639 C   0  0  0  0  0  0  0  0  0  0  0  0
  129.9478  136.6574  163.1746 C   0  0  0  0  0  0  0  0  0  0  0  0
  128.5399  137.1839  163.4647 C   0  0  0  0  0  0  0  0  0  0  0  0
  127.5724  136.2704  162.9437 O   0  0  0  0  0  0  0  0  0  0  0  0
  127.6463  136.0865  161.5285 C   0  0  0  0  0  0  0  0  0  0  0  0
  129.0175  135.5137  161.1607 C   0  0  0  0  0  0  0  0  0  0  0  0
  132.4637  136.9528  162.9483 H   0  0  0  0  0  0  0  0  0  0  0  0
  132.0085  136.3741  159.3779 H   0  0  0  0  0  0  0  0  0  0  0  0
  130.0475  131.4520  159.2543 H   0  0  0  0  0  0  0  0  0  0  0  0
  129.4722  133.6927  155.6757 H   0  0  0  0  0  0  0  0  0  0  0  0
  129.3360  132.5292  153.5156 H   0  0  0  0  0  0  0  0  0  0  0  0
  130.7917  128.2554  153.6753 H   0  0  0  0  0  0  0  0  0  0  0  0
  130.6451  127.0976  151.5096 H   0  0  0  0  0  0  0  0  0  0  0  0
  130.3167  128.3874  149.4403 H   0  0  0  0  0  0  0  0  0  0  0  0
  130.1260  130.8386  149.5260 H   0  0  0  0  0  0  0  0  0  0  0  0
  130.2615  132.0125  151.6835 H   0  0  0  0  0  0  0  0  0  0  0  0
  131.9017  129.4411  155.0163 H   0  0  0  0  0  0  0  0  0  0  0  0
  132.0467  130.6095  157.1733 H   0  0  0  0  0  0  0  0  0  0  0  0
  130.0182  137.4242  161.1600 H   0  0  0  0  0  0  0  0  0  0  0  0
  130.0905  135.7035  163.6825 H   0  0  0  0  0  0  0  0  0  0  0  0
  130.6871  137.3749  163.5306 H   0  0  0  0  0  0  0  0  0  0  0  0
  128.4125  138.1576  162.9911 H   0  0  0  0  0  0  0  0  0  0  0  0
  128.4035  137.2830  164.5416 H   0  0  0  0  0  0  0  0  0  0  0  0
  127.5073  137.0456  161.0295 H   0  0  0  0  0  0  0  0  0  0  0  0
  126.8662  135.3947  161.2105 H   0  0  0  0  0  0  0  0  0  0  0  0
  129.0922  135.4140  160.0778 H   0  0  0  0  0  0  0  0  0  0  0  0
  129.1415  134.5357  161.6259 H   0  0  0  0  0  0  0  0  0  0  0  0
  1  2  1  0
  2  3  1  0
  2  4  1  0
  2 32  1  0
  4  5  1  1
  4  6  1  0
  4 26  1  0
  6 33  1  0
  7  6  1  0
  7 24  2  0
  7  8  1  0
  8  9  1  0
  8 10  1  0
 10 11  2  0
 10 34  1  0
 11 12  1  0
 11 24  1  0
 12 23  1  0
 12 13  2  0
 13 14  1  0
 13 35  1  0
 14 15  2  0
 14 36  1  0
 15 16  1  0
 15 22  1  0
 16 21  1  0
 16 17  2  0
 17 18  1  0
 17 37  1  0
 18 19  2  0
 18 38  1  0
 19 20  1  0
 19 39  1  0
 20 21  2  0
 20 40  1  0
 21 41  1  0
 22 23  2  0
 22 42  1  0
 23 43  1  0
 24 25  1  0
 26 31  1  0
 26 27  1  0
 26 44  1  0
 27 28  1  0
 27 45  1  0
 27 46  1  0
 28 29  1  0
 28 47  1  0
 28 48  1  0
 29 30  1  0
 30 31  1  0
 30 49  1  0
 30 50  1  0
 31 51  1  0
 31 52  1  0
M  CHG  1  24   1
M  END
>  <DOCK_score>  (1) 
-55.939232

>  <SMILES>  (1) 
FC(F)[C@H](Nc1[nH]cc(-c2ccc(-c3ccccc3)cc2)[nH+]1)C1CCOCC1

$$$$
