Cc1cccc(NC(=O)[C@H](C)n2cc(C[C@@H]([NH3+])C(=O)Nc3cccc(O)c3)nn2)c1
     RDKit          3D

 55 57  0  0  1  0  0  0  0  0999 V2000
  126.7551  134.8723  167.9881 C   0  0  0  0  0  0  0  0  0  0  0  0
  126.8620  136.3711  167.8731 C   0  0  0  0  0  0  0  0  0  0  0  0
  126.1541  137.1826  168.7406 C   0  0  0  0  0  0  0  0  0  0  0  0
  126.2493  138.5583  168.6383 C   0  0  0  0  0  0  0  0  0  0  0  0
  127.0578  139.1261  167.6728 C   0  0  0  0  0  0  0  0  0  0  0  0
  127.7655  138.3140  166.7966 C   0  0  0  0  0  0  0  0  0  0  0  0
  128.5805  138.8862  165.8136 N   0  0  0  0  0  0  0  0  0  0  0  0
  128.7764  138.2457  164.6440 C   0  0  0  0  0  0  0  0  0  0  0  0
  128.2460  137.1734  164.4436 O   0  0  0  0  0  0  0  0  0  0  0  0
  129.6541  138.8619  163.5853 C   0  0  2  0  0  0  0  0  0  0  0  0
  130.6599  138.9992  163.9820 H   0  0  0  0  0  0  0  0  0  0  0  0
  129.0792  140.2183  163.1721 C   0  0  0  0  0  0  0  0  0  0  0  0
  129.7057  137.9776  162.4184 N   0  0  0  0  0  0  0  0  0  0  0  0
  130.6057  136.9883  162.2125 C   0  0  0  0  0  0  0  0  0  0  0  0
  130.2895  136.4332  161.0193 C   0  0  0  0  0  0  0  0  0  0  0  0
  130.9989  135.2899  160.3403 C   0  0  0  0  0  0  0  0  0  0  0  0
  130.3067  134.9768  159.0123 C   0  0  1  0  0  0  0  0  0  0  0  0
  130.0202  135.9080  158.5236 H   0  0  0  0  0  0  0  0  0  0  0  0
  131.2276  134.2314  158.1440 N   0  0  0  0  0  0  0  0  0  0  0  0
  131.4929  133.3694  158.5965 H   0  0  0  0  0  0  0  0  0  0  0  0
  130.7711  134.0248  157.2681 H   0  0  0  0  0  0  0  0  0  0  0  0
  132.0514  134.7877  157.9709 H   0  0  0  0  0  0  0  0  0  0  0  0
  129.0763  134.1459  159.2707 C   0  0  0  0  0  0  0  0  0  0  0  0
  129.1535  132.9355  159.2830 O   0  0  0  0  0  0  0  0  0  0  0  0
  127.8903  134.7477  159.4884 N   0  0  0  0  0  0  0  0  0  0  0  0
  126.7479  133.9761  159.7285 C   0  0  0  0  0  0  0  0  0  0  0  0
  126.6301  132.7131  159.1620 C   0  0  0  0  0  0  0  0  0  0  0  0
  125.5050  131.9491  159.4037 C   0  0  0  0  0  0  0  0  0  0  0  0
  124.4889  132.4432  160.1997 C   0  0  0  0  0  0  0  0  0  0  0  0
  124.5987  133.7063  160.7635 C   0  0  0  0  0  0  0  0  0  0  0  0
  123.5987  134.1910  161.5457 O   0  0  0  0  0  0  0  0  0  0  0  0
  125.7288  134.4738  160.5280 C   0  0  0  0  0  0  0  0  0  0  0  0
  129.2202  137.0953  160.5638 N   0  0  0  0  0  0  0  0  0  0  0  0
  128.8989  138.0040  161.4158 N   0  0  0  0  0  0  0  0  0  0  0  0
  127.6672  136.9325  166.9017 C   0  0  0  0  0  0  0  0  0  0  0  0
  127.5222  134.5045  168.6695 H   0  0  0  0  0  0  0  0  0  0  0  0
  125.7702  134.6068  168.3725 H   0  0  0  0  0  0  0  0  0  0  0  0
  126.8955  134.4215  167.0057 H   0  0  0  0  0  0  0  0  0  0  0  0
  125.5252  136.7409  169.4993 H   0  0  0  0  0  0  0  0  0  0  0  0
  125.6949  139.1894  169.3170 H   0  0  0  0  0  0  0  0  0  0  0  0
  127.1359  140.2005  167.5967 H   0  0  0  0  0  0  0  0  0  0  0  0
  129.0045  139.7437  165.9738 H   0  0  0  0  0  0  0  0  0  0  0  0
  129.0406  140.8762  164.0403 H   0  0  0  0  0  0  0  0  0  0  0  0
  129.7140  140.6639  162.4063 H   0  0  0  0  0  0  0  0  0  0  0  0
  128.0732  140.0809  162.7753 H   0  0  0  0  0  0  0  0  0  0  0  0
  131.4151  136.7013  162.8674 H   0  0  0  0  0  0  0  0  0  0  0  0
  130.9674  134.4100  160.9828 H   0  0  0  0  0  0  0  0  0  0  0  0
  132.0365  135.5661  160.1530 H   0  0  0  0  0  0  0  0  0  0  0  0
  127.8284  135.7156  159.4787 H   0  0  0  0  0  0  0  0  0  0  0  0
  127.4206  132.3265  158.5359 H   0  0  0  0  0  0  0  0  0  0  0  0
  125.4169  130.9658  158.9657 H   0  0  0  0  0  0  0  0  0  0  0  0
  123.6086  131.8452  160.3836 H   0  0  0  0  0  0  0  0  0  0  0  0
  123.7656  135.0780  161.8929 H   0  0  0  0  0  0  0  0  0  0  0  0
  125.8161  135.4570  160.9662 H   0  0  0  0  0  0  0  0  0  0  0  0
  128.2196  136.2982  166.2244 H   0  0  0  0  0  0  0  0  0  0  0  0
  1  2  1  0
  1 36  1  0
  1 37  1  0
  1 38  1  0
  2 35  2  0
  2  3  1  0
  3  4  2  0
  3 39  1  0
  4  5  1  0
  4 40  1  0
  5  6  2  0
  5 41  1  0
  6  7  1  0
  6 35  1  0
  7  8  1  0
  7 42  1  0
  8  9  2  0
  8 10  1  0
 10 11  1  1
 10 12  1  0
 10 13  1  0
 12 43  1  0
 12 44  1  0
 12 45  1  0
 13 34  1  0
 13 14  1  0
 14 15  2  0
 14 46  1  0
 15 16  1  0
 15 33  1  0
 16 17  1  0
 16 47  1  0
 16 48  1  0
 17 18  1  6
 17 19  1  0
 17 23  1  0
 19 20  1  0
 19 21  1  0
 19 22  1  0
 23 24  2  0
 23 25  1  0
 25 26  1  0
 25 49  1  0
 26 32  1  0
 26 27  2  0
 27 28  1  0
 27 50  1  0
 28 29  2  0
 28 51  1  0
 29 30  1  0
 29 52  1  0
 30 31  1  0
 30 32  2  0
 31 53  1  0
 32 54  1  0
 33 34  2  0
 35 55  1  0
M  CHG  1  19   1
M  END
>  <DOCK_score>  (1) 
-41.039207

>  <SMILES>  (1) 
Cc1cccc(NC(=O)[C@H](C)n2cc(C[C@@H]([NH3+])C(=O)Nc3cccc(O)c3)nn2)c1

$$$$
