Cc1ccc2ccccc2c1C1=CC[NH+]([C@@H](C)c2cc3ccccc3o2)CC1
     RDKit          3D

 54 58  0  0  1  0  0  0  0  0999 V2000
  134.4595  138.9607  158.0929 C   0  0  0  0  0  0  0  0  0  0  0  0
  134.9277  139.4148  159.4515 C   0  0  0  0  0  0  0  0  0  0  0  0
  135.9976  140.2964  159.5512 C   0  0  0  0  0  0  0  0  0  0  0  0
  136.4456  140.7271  160.7635 C   0  0  0  0  0  0  0  0  0  0  0  0
  135.8258  140.2807  161.9437 C   0  0  0  0  0  0  0  0  0  0  0  0
  136.2702  140.7101  163.2063 C   0  0  0  0  0  0  0  0  0  0  0  0
  135.6512  140.2534  164.3295 C   0  0  0  0  0  0  0  0  0  0  0  0
  134.5740  139.3740  164.2466 C   0  0  0  0  0  0  0  0  0  0  0  0
  134.1174  138.9379  163.0393 C   0  0  0  0  0  0  0  0  0  0  0  0
  134.7345  139.3824  161.8620 C   0  0  0  0  0  0  0  0  0  0  0  0
  134.2870  138.9498  160.5888 C   0  0  0  0  0  0  0  0  0  0  0  0
  133.1524  138.0140  160.4755 C   0  0  0  0  0  0  0  0  0  0  0  0
  131.9329  138.5028  160.3739 C   0  0  0  0  0  0  0  0  0  0  0  0
  130.7129  137.6351  160.2587 C   0  0  0  0  0  0  0  0  0  0  0  0
  131.0877  136.2773  159.8471 N   0  0  2  0  0  0  0  0  0  0  0  0
  131.4410  136.2964  158.9020 H   0  0  0  0  0  0  0  0  0  0  0  0
  129.9108  135.4008  159.9142 C   0  0  1  0  0  0  0  0  0  0  0  0
  129.5322  135.3784  160.9362 H   0  0  0  0  0  0  0  0  0  0  0  0
  128.8236  135.9343  158.9793 C   0  0  0  0  0  0  0  0  0  0  0  0
  130.2976  134.0071  159.4911 C   0  0  0  0  0  0  0  0  0  0  0  0
  130.7995  133.6810  158.2924 C   0  0  0  0  0  0  0  0  0  0  0  0
  131.0261  132.2310  158.3244 C   0  0  0  0  0  0  0  0  0  0  0  0
  131.5208  131.3011  157.4112 C   0  0  0  0  0  0  0  0  0  0  0  0
  131.6059  129.9830  157.7648 C   0  0  0  0  0  0  0  0  0  0  0  0
  131.2027  129.5663  159.0252 C   0  0  0  0  0  0  0  0  0  0  0  0
  130.7108  130.4713  159.9414 C   0  0  0  0  0  0  0  0  0  0  0  0
  130.6166  131.8155  159.6024 C   0  0  0  0  0  0  0  0  0  0  0  0
  130.1947  132.9118  160.2639 O   0  0  0  0  0  0  0  0  0  0  0  0
  132.1302  135.7723  160.7543 C   0  0  0  0  0  0  0  0  0  0  0  0
  133.4290  136.5355  160.4736 C   0  0  0  0  0  0  0  0  0  0  0  0
  134.9974  138.0568  157.8068 H   0  0  0  0  0  0  0  0  0  0  0  0
  133.3903  138.7515  158.1283 H   0  0  0  0  0  0  0  0  0  0  0  0
  134.6524  139.7451  157.3612 H   0  0  0  0  0  0  0  0  0  0  0  0
  136.4823  140.6463  158.6519 H   0  0  0  0  0  0  0  0  0  0  0  0
  137.2789  141.4122  160.8180 H   0  0  0  0  0  0  0  0  0  0  0  0
  137.1015  141.3952  163.2851 H   0  0  0  0  0  0  0  0  0  0  0  0
  135.9975  140.5811  165.2986 H   0  0  0  0  0  0  0  0  0  0  0  0
  134.0968  139.0298  165.1521 H   0  0  0  0  0  0  0  0  0  0  0  0
  133.2843  138.2524  162.9899 H   0  0  0  0  0  0  0  0  0  0  0  0
  131.8053  139.5752  160.3732 H   0  0  0  0  0  0  0  0  0  0  0  0
  130.2081  137.5929  161.2238 H   0  0  0  0  0  0  0  0  0  0  0  0
  130.0370  138.0603  159.5167 H   0  0  0  0  0  0  0  0  0  0  0  0
  127.9503  135.2839  159.0291 H   0  0  0  0  0  0  0  0  0  0  0  0
  128.5437  136.9423  159.2851 H   0  0  0  0  0  0  0  0  0  0  0  0
  129.2021  135.9567  157.9573 H   0  0  0  0  0  0  0  0  0  0  0  0
  130.9973  134.3501  157.4680 H   0  0  0  0  0  0  0  0  0  0  0  0
  131.8353  131.6204  156.4286 H   0  0  0  0  0  0  0  0  0  0  0  0
  131.9890  129.2616  157.0583 H   0  0  0  0  0  0  0  0  0  0  0  0
  131.2746  128.5221  159.2912 H   0  0  0  0  0  0  0  0  0  0  0  0
  130.3994  130.1364  160.9198 H   0  0  0  0  0  0  0  0  0  0  0  0
  131.8239  135.9315  161.7883 H   0  0  0  0  0  0  0  0  0  0  0  0
  132.2841  134.7077  160.5782 H   0  0  0  0  0  0  0  0  0  0  0  0
  133.8239  136.2413  159.5012 H   0  0  0  0  0  0  0  0  0  0  0  0
  134.1599  136.3020  161.2477 H   0  0  0  0  0  0  0  0  0  0  0  0
  1  2  1  0
  1 31  1  0
  1 32  1  0
  1 33  1  0
  2 11  2  0
  2  3  1  0
  3  4  2  0
  3 34  1  0
  4  5  1  0
  4 35  1  0
  5 10  2  0
  5  6  1  0
  6  7  2  0
  6 36  1  0
  7  8  1  0
  7 37  1  0
  8  9  2  0
  8 38  1  0
  9 10  1  0
  9 39  1  0
 10 11  1  0
 11 12  1  0
 12 30  1  0
 12 13  2  0
 13 14  1  0
 13 40  1  0
 14 15  1  0
 14 41  1  0
 14 42  1  0
 15 16  1  6
 15 17  1  0
 15 29  1  0
 17 18  1  1
 17 19  1  0
 17 20  1  0
 19 43  1  0
 19 44  1  0
 19 45  1  0
 20 28  1  0
 20 21  2  0
 21 22  1  0
 21 46  1  0
 22 27  2  0
 22 23  1  0
 23 24  2  0
 23 47  1  0
 24 25  1  0
 24 48  1  0
 25 26  2  0
 25 49  1  0
 26 27  1  0
 26 50  1  0
 27 28  1  0
 29 30  1  0
 29 51  1  0
 29 52  1  0
 30 53  1  0
 30 54  1  0
M  CHG  1  15   1
M  END
>  <DOCK_score>  (1) 
-56.177544

>  <SMILES>  (1) 
Cc1ccc2ccccc2c1C1=CC[NH+]([C@@H](C)c2cc3ccccc3o2)CC1

$$$$
