Cc1nn(-c2ccccc2)cc1C=C[C@H](Nc1[nH]cc(-c2ccc(N)cc2)[nH+]1)c1ccnn1C
     RDKit          3D

 61 65  0  0  1  0  0  0  0  0999 V2000
  133.9732  138.0652  159.6544 C   0  0  0  0  0  0  0  0  0  0  0  0
  133.5113  138.1879  161.0835 C   0  0  0  0  0  0  0  0  0  0  0  0
  133.9425  139.0589  161.9568 N   0  0  0  0  0  0  0  0  0  0  0  0
  133.2697  138.8492  163.1664 N   0  0  0  0  0  0  0  0  0  0  0  0
  133.4544  139.5816  164.3469 C   0  0  0  0  0  0  0  0  0  0  0  0
  132.7190  139.2683  165.4822 C   0  0  0  0  0  0  0  0  0  0  0  0
  132.9035  139.9917  166.6442 C   0  0  0  0  0  0  0  0  0  0  0  0
  133.8196  141.0269  166.6778 C   0  0  0  0  0  0  0  0  0  0  0  0
  134.5534  141.3414  165.5486 C   0  0  0  0  0  0  0  0  0  0  0  0
  134.3733  140.6217  164.3837 C   0  0  0  0  0  0  0  0  0  0  0  0
  132.4161  137.8154  163.0014 C   0  0  0  0  0  0  0  0  0  0  0  0
  132.5379  137.3826  161.7111 C   0  0  0  0  0  0  0  0  0  0  0  0
  131.7896  136.2694  161.0878 C   0  0  0  0  0  0  0  0  0  0  0  0
  130.4670  136.3169  161.0182 C   0  0  0  0  0  0  0  0  0  0  0  0
  129.7047  135.1827  160.3831 C   0  0  2  0  0  0  0  0  0  0  0  0
  129.9069  134.2597  160.9266 H   0  0  0  0  0  0  0  0  0  0  0  0
  130.1273  135.0307  158.9886 N   0  0  0  0  0  0  0  0  0  0  0  0
  130.0917  133.7847  158.3863 C   0  0  0  0  0  0  0  0  0  0  0  0
  129.6811  132.6300  158.9777 N   0  0  0  0  0  0  0  0  0  0  0  0
  129.3637  132.5325  159.8890 H   0  0  0  0  0  0  0  0  0  0  0  0
  129.7998  131.6271  158.0448 C   0  0  0  0  0  0  0  0  0  0  0  0
  130.2789  132.1983  156.9122 C   0  0  0  0  0  0  0  0  0  0  0  0
  130.5679  131.4984  155.6365 C   0  0  0  0  0  0  0  0  0  0  0  0
  129.9002  131.8692  154.4702 C   0  0  0  0  0  0  0  0  0  0  0  0
  130.1741  131.2208  153.2844 C   0  0  0  0  0  0  0  0  0  0  0  0
  131.1064  130.1912  153.2535 C   0  0  0  0  0  0  0  0  0  0  0  0
  131.3779  129.5320  152.0522 N   0  0  0  0  0  0  0  0  0  0  0  0
  131.7697  129.8159  154.4164 C   0  0  0  0  0  0  0  0  0  0  0  0
  131.5030  130.4653  155.6033 C   0  0  0  0  0  0  0  0  0  0  0  0
  130.4428  133.5237  157.1506 N   0  0  0  0  0  0  0  0  0  0  0  0
  130.7697  134.1741  156.5096 H   0  0  0  0  0  0  0  0  0  0  0  0
  128.2283  135.4808  160.4309 C   0  0  0  0  0  0  0  0  0  0  0  0
  127.5156  136.1358  159.4855 C   0  0  0  0  0  0  0  0  0  0  0  0
  126.1861  136.1991  159.9155 C   0  0  0  0  0  0  0  0  0  0  0  0
  126.1037  135.6034  161.0775 N   0  0  0  0  0  0  0  0  0  0  0  0
  127.3789  135.1370  161.4217 N   0  0  0  0  0  0  0  0  0  0  0  0
  127.7293  134.4079  162.6431 C   0  0  0  0  0  0  0  0  0  0  0  0
  134.8178  137.3781  159.6031 H   0  0  0  0  0  0  0  0  0  0  0  0
  133.1573  137.6844  159.0402 H   0  0  0  0  0  0  0  0  0  0  0  0
  134.2788  139.0445  159.2859 H   0  0  0  0  0  0  0  0  0  0  0  0
  132.0037  138.4595  165.4568 H   0  0  0  0  0  0  0  0  0  0  0  0
  132.3286  139.7514  167.5264 H   0  0  0  0  0  0  0  0  0  0  0  0
  133.9622  141.5911  167.5876 H   0  0  0  0  0  0  0  0  0  0  0  0
  135.2681  142.1506  165.5779 H   0  0  0  0  0  0  0  0  0  0  0  0
  134.9471  140.8676  163.5022 H   0  0  0  0  0  0  0  0  0  0  0  0
  131.7558  137.4068  163.7521 H   0  0  0  0  0  0  0  0  0  0  0  0
  132.3211  135.4179  160.6892 H   0  0  0  0  0  0  0  0  0  0  0  0
  129.9356  137.1685  161.4167 H   0  0  0  0  0  0  0  0  0  0  0  0
  130.4319  135.8032  158.4872 H   0  0  0  0  0  0  0  0  0  0  0  0
  129.5578  130.5843  158.1869 H   0  0  0  0  0  0  0  0  0  0  0  0
  129.1719  132.6663  154.4946 H   0  0  0  0  0  0  0  0  0  0  0  0
  129.6603  131.5106  152.3799 H   0  0  0  0  0  0  0  0  0  0  0  0
  132.0292  128.8124  152.0303 H   0  0  0  0  0  0  0  0  0  0  0  0
  130.9160  129.7924  151.2408 H   0  0  0  0  0  0  0  0  0  0  0  0
  132.4939  129.0152  154.3904 H   0  0  0  0  0  0  0  0  0  0  0  0
  132.0188  130.1739  156.5063 H   0  0  0  0  0  0  0  0  0  0  0  0
  127.9045  136.5390  158.5621 H   0  0  0  0  0  0  0  0  0  0  0  0
  125.3690  136.6605  159.3810 H   0  0  0  0  0  0  0  0  0  0  0  0
  128.0108  135.1170  163.4215 H   0  0  0  0  0  0  0  0  0  0  0  0
  126.8715  133.8239  162.9764 H   0  0  0  0  0  0  0  0  0  0  0  0
  128.5666  133.7400  162.4400 H   0  0  0  0  0  0  0  0  0  0  0  0
  1  2  1  0
  1 38  1  0
  1 39  1  0
  1 40  1  0
  2 12  1  0
  2  3  2  0
  3  4  1  0
  4  5  1  0
  4 11  1  0
  5 10  1  0
  5  6  2  0
  6  7  1  0
  6 41  1  0
  7  8  2  0
  7 42  1  0
  8  9  1  0
  8 43  1  0
  9 10  2  0
  9 44  1  0
 10 45  1  0
 11 12  2  0
 11 46  1  0
 12 13  1  0
 13 14  2  0
 13 47  1  0
 14 15  1  0
 14 48  1  0
 15 16  1  1
 15 17  1  0
 15 32  1  0
 17 49  1  0
 18 17  1  0
 18 30  2  0
 18 19  1  0
 19 20  1  0
 19 21  1  0
 21 22  2  0
 21 50  1  0
 22 23  1  0
 22 30  1  0
 23 29  1  0
 23 24  2  0
 24 25  1  0
 24 51  1  0
 25 26  2  0
 25 52  1  0
 26 27  1  0
 26 28  1  0
 27 53  1  0
 27 54  1  0
 28 29  2  0
 28 55  1  0
 29 56  1  0
 30 31  1  0
 32 36  1  0
 32 33  2  0
 33 34  1  0
 33 57  1  0
 34 35  2  0
 34 58  1  0
 35 36  1  0
 36 37  1  0
 37 59  1  0
 37 60  1  0
 37 61  1  0
M  CHG  1  30   1
M  END
>  <DOCK_score>  (1) 
-54.33905

>  <SMILES>  (1) 
Cc1nn(-c2ccccc2)cc1C=C[C@H](Nc1[nH]cc(-c2ccc(N)cc2)[nH+]1)c1ccnn1C

$$$$
