CCc1ccc(-c2c[nH]c(Nc3ccc(-c4nn(-c5ccccc5)cc4C=O)cc3)[nH+]2)cc1
     RDKit          3D

 57 61  0  0  1  0  0  0  0  0999 V2000
  130.1533  128.4821  151.9750 C   0  0  0  0  0  0  0  0  0  0  0  0
  131.2482  129.5401  152.1248 C   0  0  0  0  0  0  0  0  0  0  0  0
  131.0549  130.2827  153.4218 C   0  0  0  0  0  0  0  0  0  0  0  0
  131.6619  129.8235  154.5763 C   0  0  0  0  0  0  0  0  0  0  0  0
  131.4928  130.5034  155.7654 C   0  0  0  0  0  0  0  0  0  0  0  0
  130.6998  131.6489  155.8035 C   0  0  0  0  0  0  0  0  0  0  0  0
  130.5102  132.3809  157.0797 C   0  0  0  0  0  0  0  0  0  0  0  0
  129.9721  131.8753  158.2175 C   0  0  0  0  0  0  0  0  0  0  0  0
  129.9861  132.8850  159.1479 N   0  0  0  0  0  0  0  0  0  0  0  0
  129.6651  132.8289  160.0615 H   0  0  0  0  0  0  0  0  0  0  0  0
  130.5329  133.9795  158.5513 C   0  0  0  0  0  0  0  0  0  0  0  0
  130.7281  135.2127  159.1514 N   0  0  0  0  0  0  0  0  0  0  0  0
  130.3509  135.4096  160.4812 C   0  0  0  0  0  0  0  0  0  0  0  0
  129.4115  136.3841  160.7994 C   0  0  0  0  0  0  0  0  0  0  0  0
  129.0334  136.5764  162.1106 C   0  0  0  0  0  0  0  0  0  0  0  0
  129.6023  135.8002  163.1204 C   0  0  0  0  0  0  0  0  0  0  0  0
  129.2017  136.0087  164.5315 C   0  0  0  0  0  0  0  0  0  0  0  0
  129.9514  135.8182  165.5933 N   0  0  0  0  0  0  0  0  0  0  0  0
  129.2121  136.1248  166.7389 N   0  0  0  0  0  0  0  0  0  0  0  0
  129.6892  136.0382  168.0530 C   0  0  0  0  0  0  0  0  0  0  0  0
  128.8626  136.3752  169.1169 C   0  0  0  0  0  0  0  0  0  0  0  0
  129.3341  136.2832  170.4119 C   0  0  0  0  0  0  0  0  0  0  0  0
  130.6313  135.8670  170.6489 C   0  0  0  0  0  0  0  0  0  0  0  0
  131.4586  135.5362  169.5915 C   0  0  0  0  0  0  0  0  0  0  0  0
  130.9914  135.6206  168.2946 C   0  0  0  0  0  0  0  0  0  0  0  0
  127.9757  136.5151  166.3899 C   0  0  0  0  0  0  0  0  0  0  0  0
  127.8928  136.4739  165.0086 C   0  0  0  0  0  0  0  0  0  0  0  0
  126.7311  136.8211  164.1876 C   0  0  0  0  0  0  0  0  0  0  0  0
  126.5548  136.2693  163.1215 O   0  0  0  0  0  0  0  0  0  0  0  0
  130.5488  134.8270  162.7994 C   0  0  0  0  0  0  0  0  0  0  0  0
  130.9194  134.6346  161.4861 C   0  0  0  0  0  0  0  0  0  0  0  0
  130.8497  133.6723  157.3170 N   0  0  0  0  0  0  0  0  0  0  0  0
  131.2596  134.2732  156.6753 H   0  0  0  0  0  0  0  0  0  0  0  0
  130.0860  132.1042  154.6380 C   0  0  0  0  0  0  0  0  0  0  0  0
  130.2663  131.4194  153.4535 C   0  0  0  0  0  0  0  0  0  0  0  0
  129.1772  128.9672  151.9736 H   0  0  0  0  0  0  0  0  0  0  0  0
  130.2932  127.9447  151.0370 H   0  0  0  0  0  0  0  0  0  0  0  0
  130.2094  127.7808  152.8076 H   0  0  0  0  0  0  0  0  0  0  0  0
  132.2244  129.0552  152.1261 H   0  0  0  0  0  0  0  0  0  0  0  0
  131.1922  130.2415  151.2922 H   0  0  0  0  0  0  0  0  0  0  0  0
  132.2726  128.9334  154.5465 H   0  0  0  0  0  0  0  0  0  0  0  0
  131.9712  130.1463  156.6654 H   0  0  0  0  0  0  0  0  0  0  0  0
  129.6036  130.8707  158.3637 H   0  0  0  0  0  0  0  0  0  0  0  0
  131.1269  135.9396  158.6477 H   0  0  0  0  0  0  0  0  0  0  0  0
  128.9746  136.9879  160.0176 H   0  0  0  0  0  0  0  0  0  0  0  0
  128.3007  137.3307  162.3567 H   0  0  0  0  0  0  0  0  0  0  0  0
  127.8509  136.7045  168.9321 H   0  0  0  0  0  0  0  0  0  0  0  0
  128.6902  136.5405  171.2398 H   0  0  0  0  0  0  0  0  0  0  0  0
  130.9989  135.7998  171.6623 H   0  0  0  0  0  0  0  0  0  0  0  0
  132.4711  135.2112  169.7800 H   0  0  0  0  0  0  0  0  0  0  0  0
  131.6379  135.3617  167.4692 H   0  0  0  0  0  0  0  0  0  0  0  0
  127.1877  136.8124  167.0659 H   0  0  0  0  0  0  0  0  0  0  0  0
  126.0312  137.5686  164.5310 H   0  0  0  0  0  0  0  0  0  0  0  0
  130.9903  134.2245  163.5795 H   0  0  0  0  0  0  0  0  0  0  0  0
  131.6523  133.8813  161.2371 H   0  0  0  0  0  0  0  0  0  0  0  0
  129.4701  132.9910  154.6619 H   0  0  0  0  0  0  0  0  0  0  0  0
  129.7911  131.7713  152.5497 H   0  0  0  0  0  0  0  0  0  0  0  0
  1  2  1  0
  1 36  1  0
  1 37  1  0
  1 38  1  0
  2  3  1  0
  2 39  1  0
  2 40  1  0
  3 35  2  0
  3  4  1  0
  4  5  2  0
  4 41  1  0
  5  6  1  0
  5 42  1  0
  6  7  1  0
  6 34  2  0
  7 32  1  0
  7  8  2  0
  8  9  1  0
  8 43  1  0
  9 10  1  0
  9 11  1  0
 11 12  1  0
 11 32  2  0
 12 13  1  0
 12 44  1  0
 13 31  1  0
 13 14  2  0
 14 15  1  0
 14 45  1  0
 15 16  2  0
 15 46  1  0
 16 17  1  0
 16 30  1  0
 17 27  1  0
 17 18  2  0
 18 19  1  0
 19 20  1  0
 19 26  1  0
 20 25  1  0
 20 21  2  0
 21 22  1  0
 21 47  1  0
 22 23  2  0
 22 48  1  0
 23 24  1  0
 23 49  1  0
 24 25  2  0
 24 50  1  0
 25 51  1  0
 26 27  2  0
 26 52  1  0
 27 28  1  0
 28 29  2  0
 28 53  1  0
 30 31  2  0
 30 54  1  0
 31 55  1  0
 32 33  1  0
 34 35  1  0
 34 56  1  0
 35 57  1  0
M  CHG  1  32   1
M  END
>  <DOCK_score>  (1) 
-54.034813

>  <SMILES>  (1) 
CCc1ccc(-c2c[nH]c(Nc3ccc(-c4nn(-c5ccccc5)cc4C=O)cc3)[nH+]2)cc1

$$$$
