Cc1cccc(-c2cccc(N3CC[NH+](C(c4ccccc4)c4ccccc4)CC3)c2CCl)c1
     RDKit          3D

 66 70  0  0  0  0  0  0  0  0999 V2000
  138.6072  136.1777  166.5057 C   0  0  0  0  0  0  0  0  0  0  0  0
  137.4502  137.0451  166.0812 C   0  0  0  0  0  0  0  0  0  0  0  0
  136.8870  137.9334  166.9800 C   0  0  0  0  0  0  0  0  0  0  0  0
  135.8250  138.7323  166.5972 C   0  0  0  0  0  0  0  0  0  0  0  0
  135.3211  138.6473  165.3148 C   0  0  0  0  0  0  0  0  0  0  0  0
  135.8845  137.7545  164.4056 C   0  0  0  0  0  0  0  0  0  0  0  0
  135.3475  137.6591  163.0255 C   0  0  0  0  0  0  0  0  0  0  0  0
  135.8711  138.4638  162.0148 C   0  0  0  0  0  0  0  0  0  0  0  0
  135.3706  138.3740  160.7314 C   0  0  0  0  0  0  0  0  0  0  0  0
  134.3497  137.4880  160.4437 C   0  0  0  0  0  0  0  0  0  0  0  0
  133.8217  136.6818  161.4449 C   0  0  0  0  0  0  0  0  0  0  0  0
  132.7901  135.7873  161.1504 N   0  0  0  0  0  0  0  0  0  0  0  0
  133.2375  134.7626  160.1965 C   0  0  0  0  0  0  0  0  0  0  0  0
  132.0995  133.7706  159.9469 C   0  0  0  0  0  0  0  0  0  0  0  0
  130.9340  134.4867  159.4116 N   0  0  0  0  0  0  0  0  0  0  0  0
  131.1882  134.9456  158.5499 H   0  0  0  0  0  0  0  0  0  0  0  0
  129.8480  133.5313  159.1552 C   0  0  0  0  0  0  0  0  0  0  0  0
  128.6522  134.2658  158.6060 C   0  0  0  0  0  0  0  0  0  0  0  0
  127.3773  133.7889  158.8474 C   0  0  0  0  0  0  0  0  0  0  0  0
  126.2802  134.4654  158.3478 C   0  0  0  0  0  0  0  0  0  0  0  0
  126.4584  135.6130  157.5979 C   0  0  0  0  0  0  0  0  0  0  0  0
  127.7335  136.0870  157.3521 C   0  0  0  0  0  0  0  0  0  0  0  0
  128.8304  135.4134  157.8561 C   0  0  0  0  0  0  0  0  0  0  0  0
  130.3091  132.5033  158.1545 C   0  0  0  0  0  0  0  0  0  0  0  0
  130.1183  132.7203  156.8027 C   0  0  0  0  0  0  0  0  0  0  0  0
  130.5457  131.7796  155.8845 C   0  0  0  0  0  0  0  0  0  0  0  0
  131.1544  130.6168  156.3187 C   0  0  0  0  0  0  0  0  0  0  0  0
  131.3405  130.3974  157.6707 C   0  0  0  0  0  0  0  0  0  0  0  0
  130.9178  131.3406  158.5887 C   0  0  0  0  0  0  0  0  0  0  0  0
  130.4836  135.4896  160.3858 C   0  0  0  0  0  0  0  0  0  0  0  0
  131.6082  136.4960  160.6391 C   0  0  0  0  0  0  0  0  0  0  0  0
  134.3236  136.7617  162.7357 C   0  0  0  0  0  0  0  0  0  0  0  0
  133.7574  135.8844  163.8225 C   0  0  0  0  0  0  0  0  0  0  0  0
  132.3801  136.7305  164.6212 Cl  0  0  0  0  0  0  0  0  0  0  0  0
  136.9581  136.9559  164.7950 C   0  0  0  0  0  0  0  0  0  0  0  0
  138.2282  135.2411  166.9148 H   0  0  0  0  0  0  0  0  0  0  0  0
  139.2396  135.9680  165.6430 H   0  0  0  0  0  0  0  0  0  0  0  0
  139.1905  136.6967  167.2663 H   0  0  0  0  0  0  0  0  0  0  0  0
  137.2784  138.0033  167.9842 H   0  0  0  0  0  0  0  0  0  0  0  0
  135.3893  139.4243  167.3027 H   0  0  0  0  0  0  0  0  0  0  0  0
  134.4917  139.2714  165.0170 H   0  0  0  0  0  0  0  0  0  0  0  0
  136.6686  139.1574  162.2358 H   0  0  0  0  0  0  0  0  0  0  0  0
  135.7777  138.9986  159.9499 H   0  0  0  0  0  0  0  0  0  0  0  0
  133.9615  137.4214  159.4379 H   0  0  0  0  0  0  0  0  0  0  0  0
  133.5181  135.2384  159.2568 H   0  0  0  0  0  0  0  0  0  0  0  0
  134.0973  134.2337  160.6077 H   0  0  0  0  0  0  0  0  0  0  0  0
  131.8285  133.2851  160.8844 H   0  0  0  0  0  0  0  0  0  0  0  0
  132.4246  133.0178  159.2287 H   0  0  0  0  0  0  0  0  0  0  0  0
  129.5734  133.0349  160.0860 H   0  0  0  0  0  0  0  0  0  0  0  0
  127.2382  132.8900  159.4296 H   0  0  0  0  0  0  0  0  0  0  0  0
  125.2840  134.0950  158.5395 H   0  0  0  0  0  0  0  0  0  0  0  0
  125.6014  136.1390  157.2038 H   0  0  0  0  0  0  0  0  0  0  0  0
  127.8728  136.9834  156.7660 H   0  0  0  0  0  0  0  0  0  0  0  0
  129.8266  135.7836  157.6639 H   0  0  0  0  0  0  0  0  0  0  0  0
  129.6386  133.6267  156.4637 H   0  0  0  0  0  0  0  0  0  0  0  0
  130.4000  131.9508  154.8282 H   0  0  0  0  0  0  0  0  0  0  0  0
  131.4843  129.8798  155.6015 H   0  0  0  0  0  0  0  0  0  0  0  0
  131.8158  129.4888  158.0100 H   0  0  0  0  0  0  0  0  0  0  0  0
  131.0629  131.1689  159.6450 H   0  0  0  0  0  0  0  0  0  0  0  0
  130.2210  134.9954  161.3210 H   0  0  0  0  0  0  0  0  0  0  0  0
  129.6110  136.0114  159.9929 H   0  0  0  0  0  0  0  0  0  0  0  0
  131.2796  137.2317  161.3731 H   0  0  0  0  0  0  0  0  0  0  0  0
  131.8619  137.0002  159.7065 H   0  0  0  0  0  0  0  0  0  0  0  0
  133.4062  134.9487  163.3878 H   0  0  0  0  0  0  0  0  0  0  0  0
  134.5318  135.6743  164.5601 H   0  0  0  0  0  0  0  0  0  0  0  0
  137.4016  136.2656  164.0929 H   0  0  0  0  0  0  0  0  0  0  0  0
  1  2  1  0
  1 36  1  0
  1 37  1  0
  1 38  1  0
  2 35  2  0
  2  3  1  0
  3  4  2  0
  3 39  1  0
  4  5  1  0
  4 40  1  0
  5  6  2  0
  5 41  1  0
  6  7  1  0
  6 35  1  0
  7 32  1  0
  7  8  2  0
  8  9  1  0
  8 42  1  0
  9 10  2  0
  9 43  1  0
 10 11  1  0
 10 44  1  0
 11 12  1  0
 11 32  2  0
 12 31  1  0
 12 13  1  0
 13 14  1  0
 13 45  1  0
 13 46  1  0
 14 15  1  0
 14 47  1  0
 14 48  1  0
 15 16  1  0
 15 17  1  0
 15 30  1  0
 17 18  1  0
 17 24  1  0
 17 49  1  0
 18 23  1  0
 18 19  2  0
 19 20  1  0
 19 50  1  0
 20 21  2  0
 20 51  1  0
 21 22  1  0
 21 52  1  0
 22 23  2  0
 22 53  1  0
 23 54  1  0
 24 29  1  0
 24 25  2  0
 25 26  1  0
 25 55  1  0
 26 27  2  0
 26 56  1  0
 27 28  1  0
 27 57  1  0
 28 29  2  0
 28 58  1  0
 29 59  1  0
 30 31  1  0
 30 60  1  0
 30 61  1  0
 31 62  1  0
 31 63  1  0
 32 33  1  0
 33 34  1  0
 33 64  1  0
 33 65  1  0
 35 66  1  0
M  CHG  1  15   1
M  END
>  <DOCK_score>  (1) 
-56.541569

>  <SMILES>  (1) 
Cc1cccc(-c2cccc(N3CC[NH+](C(c4ccccc4)c4ccccc4)CC3)c2CCl)c1

$$$$
