COc1cccc(Nc2ccc(Nc3[nH]cc(C4=CCC=CC4)[nH+]3)cc2)c1
     RDKit          3D

 50 53  0  0  1  0  0  0  0  0999 V2000
  127.9450  136.4422  167.2246 C   0  0  0  0  0  0  0  0  0  0  0  0
  128.0119  137.8626  167.0824 O   0  0  0  0  0  0  0  0  0  0  0  0
  127.6428  138.3805  165.8814 C   0  0  0  0  0  0  0  0  0  0  0  0
  127.6780  139.7531  165.6766 C   0  0  0  0  0  0  0  0  0  0  0  0
  127.3036  140.2813  164.4559 C   0  0  0  0  0  0  0  0  0  0  0  0
  126.8925  139.4459  163.4355 C   0  0  0  0  0  0  0  0  0  0  0  0
  126.8547  138.0712  163.6346 C   0  0  0  0  0  0  0  0  0  0  0  0
  126.4387  137.2254  162.6036 N   0  0  0  0  0  0  0  0  0  0  0  0
  127.3746  136.7148  161.6966 C   0  0  0  0  0  0  0  0  0  0  0  0
  126.9610  135.8747  160.6710 C   0  0  0  0  0  0  0  0  0  0  0  0
  127.8843  135.3707  159.7768 C   0  0  0  0  0  0  0  0  0  0  0  0
  129.2266  135.7036  159.9029 C   0  0  0  0  0  0  0  0  0  0  0  0
  130.1630  135.1923  158.9959 N   0  0  0  0  0  0  0  0  0  0  0  0
  129.9524  133.9575  158.4054 C   0  0  0  0  0  0  0  0  0  0  0  0
  129.2823  132.9140  158.9676 N   0  0  0  0  0  0  0  0  0  0  0  0
  128.8704  132.9024  159.8457 H   0  0  0  0  0  0  0  0  0  0  0  0
  129.2969  131.8817  158.0630 C   0  0  0  0  0  0  0  0  0  0  0  0
  129.9761  132.3232  156.9723 C   0  0  0  0  0  0  0  0  0  0  0  0
  130.2433  131.5500  155.7421 C   0  0  0  0  0  0  0  0  0  0  0  0
  129.7799  132.0040  154.5977 C   0  0  0  0  0  0  0  0  0  0  0  0
  130.0047  131.2945  153.2961 C   0  0  0  0  0  0  0  0  0  0  0  0
  131.1524  130.3356  153.3925 C   0  0  0  0  0  0  0  0  0  0  0  0
  131.6050  129.8851  154.5220 C   0  0  0  0  0  0  0  0  0  0  0  0
  131.0271  130.2760  155.8484 C   0  0  0  0  0  0  0  0  0  0  0  0
  130.3705  133.5992  157.2161 N   0  0  0  0  0  0  0  0  0  0  0  0
  130.8785  134.1572  156.6066 H   0  0  0  0  0  0  0  0  0  0  0  0
  129.6412  136.5389  160.9321 C   0  0  0  0  0  0  0  0  0  0  0  0
  128.7174  137.0477  161.8230 C   0  0  0  0  0  0  0  0  0  0  0  0
  127.2257  137.5392  164.8624 C   0  0  0  0  0  0  0  0  0  0  0  0
  128.2658  136.1620  168.2279 H   0  0  0  0  0  0  0  0  0  0  0  0
  126.9196  136.1089  167.0643 H   0  0  0  0  0  0  0  0  0  0  0  0
  128.5988  135.9724  166.4896 H   0  0  0  0  0  0  0  0  0  0  0  0
  127.9990  140.4089  166.4724 H   0  0  0  0  0  0  0  0  0  0  0  0
  127.3320  141.3496  164.2996 H   0  0  0  0  0  0  0  0  0  0  0  0
  126.6000  139.8614  162.4824 H   0  0  0  0  0  0  0  0  0  0  0  0
  125.5012  136.9938  162.5149 H   0  0  0  0  0  0  0  0  0  0  0  0
  125.9171  135.6155  160.5730 H   0  0  0  0  0  0  0  0  0  0  0  0
  127.5625  134.7178  158.9789 H   0  0  0  0  0  0  0  0  0  0  0  0
  130.9592  135.7031  158.7812 H   0  0  0  0  0  0  0  0  0  0  0  0
  128.8534  130.9056  158.1934 H   0  0  0  0  0  0  0  0  0  0  0  0
  129.2189  132.9269  154.5950 H   0  0  0  0  0  0  0  0  0  0  0  0
  129.1021  130.7454  153.0280 H   0  0  0  0  0  0  0  0  0  0  0  0
  130.2188  132.0299  152.5206 H   0  0  0  0  0  0  0  0  0  0  0  0
  131.6250  130.0046  152.4796 H   0  0  0  0  0  0  0  0  0  0  0  0
  132.4366  129.1961  154.5055 H   0  0  0  0  0  0  0  0  0  0  0  0
  130.3737  129.4786  156.2024 H   0  0  0  0  0  0  0  0  0  0  0  0
  131.8373  130.4166  156.5638 H   0  0  0  0  0  0  0  0  0  0  0  0
  130.6857  136.7942  161.0328 H   0  0  0  0  0  0  0  0  0  0  0  0
  129.0392  137.7005  162.6208 H   0  0  0  0  0  0  0  0  0  0  0  0
  127.1934  136.4715  165.0214 H   0  0  0  0  0  0  0  0  0  0  0  0
  1  2  1  0
  1 30  1  0
  1 31  1  0
  1 32  1  0
  2  3  1  0
  3 29  2  0
  3  4  1  0
  4  5  2  0
  4 33  1  0
  5  6  1  0
  5 34  1  0
  6  7  2  0
  6 35  1  0
  7  8  1  0
  7 29  1  0
  8  9  1  0
  8 36  1  0
  9 28  1  0
  9 10  2  0
 10 11  1  0
 10 37  1  0
 11 12  2  0
 11 38  1  0
 12 13  1  0
 12 27  1  0
 13 39  1  0
 14 13  1  0
 14 25  2  0
 14 15  1  0
 15 16  1  0
 15 17  1  0
 17 18  2  0
 17 40  1  0
 18 19  1  0
 18 25  1  0
 19 24  1  0
 19 20  2  0
 20 21  1  0
 20 41  1  0
 21 22  1  0
 21 42  1  0
 21 43  1  0
 22 23  2  0
 22 44  1  0
 23 24  1  0
 23 45  1  0
 24 46  1  0
 24 47  1  0
 25 26  1  0
 27 28  2  0
 27 48  1  0
 28 49  1  0
 29 50  1  0
M  CHG  1  25   1
M  END
>  <DOCK_score>  (1) 
-52.357632

>  <SMILES>  (1) 
COc1cccc(Nc2ccc(Nc3[nH]cc(C4=CCC=CC4)[nH+]3)cc2)c1

$$$$
