[NH3+][C@@H](C(=O)Nc1cccc(O)c1)c1cccc(NCCC2=CCCC2)c1
     RDKit          3D

 52 54  0  0  1  0  0  0  0  0999 V2000
  130.6739  134.2136  157.4934 N   0  0  0  0  0  0  0  0  0  0  0  0
  130.0654  134.4056  156.7117 H   0  0  0  0  0  0  0  0  0  0  0  0
  131.5764  134.6334  157.3279 H   0  0  0  0  0  0  0  0  0  0  0  0
  130.7813  133.2160  157.5990 H   0  0  0  0  0  0  0  0  0  0  0  0
  130.0896  134.7759  158.7183 C   0  0  1  0  0  0  0  0  0  0  0  0
  129.9738  135.8536  158.6040 H   0  0  0  0  0  0  0  0  0  0  0  0
  128.7416  134.1490  158.9653 C   0  0  0  0  0  0  0  0  0  0  0  0
  128.3101  133.3158  158.1967 O   0  0  0  0  0  0  0  0  0  0  0  0
  128.0155  134.5142  160.0405 N   0  0  0  0  0  0  0  0  0  0  0  0
  126.7639  133.9323  160.2699 C   0  0  0  0  0  0  0  0  0  0  0  0
  126.5131  132.6328  159.8474 C   0  0  0  0  0  0  0  0  0  0  0  0
  125.2775  132.0584  160.0737 C   0  0  0  0  0  0  0  0  0  0  0  0
  124.2901  132.7718  160.7265 C   0  0  0  0  0  0  0  0  0  0  0  0
  124.5331  134.0721  161.1457 C   0  0  0  0  0  0  0  0  0  0  0  0
  123.5592  134.7745  161.7820 O   0  0  0  0  0  0  0  0  0  0  0  0
  125.7717  134.6522  160.9199 C   0  0  0  0  0  0  0  0  0  0  0  0
  130.9984  134.4893  159.8858 C   0  0  0  0  0  0  0  0  0  0  0  0
  130.8367  133.3272  160.6180 C   0  0  0  0  0  0  0  0  0  0  0  0
  131.6719  133.0577  161.6864 C   0  0  0  0  0  0  0  0  0  0  0  0
  132.6640  133.9541  162.0328 C   0  0  0  0  0  0  0  0  0  0  0  0
  132.8255  135.1248  161.3030 C   0  0  0  0  0  0  0  0  0  0  0  0
  133.8279  136.0333  161.6502 N   0  0  0  0  0  0  0  0  0  0  0  0
  134.4124  136.0013  162.9931 C   0  0  0  0  0  0  0  0  0  0  0  0
  135.4790  137.0918  163.1113 C   0  0  0  0  0  0  0  0  0  0  0  0
  136.0804  137.0588  164.4928 C   0  0  0  0  0  0  0  0  0  0  0  0
  136.0493  138.0552  165.3354 C   0  0  0  0  0  0  0  0  0  0  0  0
  136.7388  137.6942  166.6305 C   0  0  0  0  0  0  0  0  0  0  0  0
  136.8500  136.1521  166.6017 C   0  0  0  0  0  0  0  0  0  0  0  0
  136.8041  135.8705  165.0819 C   0  0  0  0  0  0  0  0  0  0  0  0
  131.9881  135.3899  160.2266 C   0  0  0  0  0  0  0  0  0  0  0  0
  128.3606  135.1805  160.6552 H   0  0  0  0  0  0  0  0  0  0  0  0
  127.2847  132.0715  159.3412 H   0  0  0  0  0  0  0  0  0  0  0  0
  125.0843  131.0481  159.7442 H   0  0  0  0  0  0  0  0  0  0  0  0
  123.3266  132.3181  160.9068 H   0  0  0  0  0  0  0  0  0  0  0  0
  123.8217  135.6700  162.0354 H   0  0  0  0  0  0  0  0  0  0  0  0
  125.9640  135.6627  161.2491 H   0  0  0  0  0  0  0  0  0  0  0  0
  130.0587  132.6267  160.3522 H   0  0  0  0  0  0  0  0  0  0  0  0
  131.5457  132.1471  162.2534 H   0  0  0  0  0  0  0  0  0  0  0  0
  133.3130  133.7453  162.8702 H   0  0  0  0  0  0  0  0  0  0  0  0
  134.1371  136.6855  161.0021 H   0  0  0  0  0  0  0  0  0  0  0  0
  133.6316  136.1750  163.7335 H   0  0  0  0  0  0  0  0  0  0  0  0
  134.8683  135.0267  163.1678 H   0  0  0  0  0  0  0  0  0  0  0  0
  136.2598  136.9181  162.3709 H   0  0  0  0  0  0  0  0  0  0  0  0
  135.0231  138.0664  162.9367 H   0  0  0  0  0  0  0  0  0  0  0  0
  135.5892  139.0113  165.1342 H   0  0  0  0  0  0  0  0  0  0  0  0
  136.1420  138.0160  167.4840 H   0  0  0  0  0  0  0  0  0  0  0  0
  137.7303  138.1458  166.6676 H   0  0  0  0  0  0  0  0  0  0  0  0
  136.0048  135.6893  167.1111 H   0  0  0  0  0  0  0  0  0  0  0  0
  137.7943  135.8198  167.0328 H   0  0  0  0  0  0  0  0  0  0  0  0
  136.2516  134.9524  164.8823 H   0  0  0  0  0  0  0  0  0  0  0  0
  137.8140  135.8024  164.6776 H   0  0  0  0  0  0  0  0  0  0  0  0
  132.1108  136.2992  159.6572 H   0  0  0  0  0  0  0  0  0  0  0  0
  1  2  1  0
  1  3  1  0
  1  4  1  0
  1  5  1  0
  5  6  1  6
  5  7  1  0
  5 17  1  0
  7  8  2  0
  7  9  1  0
  9 10  1  0
  9 31  1  0
 10 16  1  0
 10 11  2  0
 11 12  1  0
 11 32  1  0
 12 13  2  0
 12 33  1  0
 13 14  1  0
 13 34  1  0
 14 15  1  0
 14 16  2  0
 15 35  1  0
 16 36  1  0
 17 30  1  0
 17 18  2  0
 18 19  1  0
 18 37  1  0
 19 20  2  0
 19 38  1  0
 20 21  1  0
 20 39  1  0
 21 22  1  0
 21 30  2  0
 22 23  1  0
 22 40  1  0
 23 24  1  0
 23 41  1  0
 23 42  1  0
 24 25  1  0
 24 43  1  0
 24 44  1  0
 25 29  1  0
 25 26  2  0
 26 27  1  0
 26 45  1  0
 27 28  1  0
 27 46  1  0
 27 47  1  0
 28 29  1  0
 28 48  1  0
 28 49  1  0
 29 50  1  0
 29 51  1  0
 30 52  1  0
M  CHG  1   1   1
M  END
>  <DOCK_score>  (1) 
-45.234894

>  <SMILES>  (1) 
[NH3+][C@@H](C(=O)Nc1cccc(O)c1)c1cccc(NCCC2=CCCC2)c1

$$$$
