CC[C@H]([NH+]=C(NC1CCC(=O)NC1)N[C@@H](C)Cc1ccccc1C)c1nc[nH]n1
     RDKit          3D

 61 63  0  0  1  0  0  0  0  0999 V2000
  130.7506  139.1516  164.3898 C   0  0  0  0  0  0  0  0  0  0  0  0
  129.4811  138.7058  163.6612 C   0  0  0  0  0  0  0  0  0  0  0  0
  129.7939  137.4868  162.7911 C   0  0  2  0  0  0  0  0  0  0  0  0
  130.1557  136.6741  163.4208 H   0  0  0  0  0  0  0  0  0  0  0  0
  130.8225  137.8388  161.8090 N   0  0  0  0  0  0  0  0  0  0  0  0
  131.1893  138.7366  161.7917 H   0  0  0  0  0  0  0  0  0  0  0  0
  131.2446  136.9457  160.9588 C   0  0  0  0  0  0  0  0  0  0  0  0
  132.2099  137.2760  160.0372 N   0  0  0  0  0  0  0  0  0  0  0  0
  133.2098  138.2973  160.3580 C   0  0  1  0  0  0  0  0  0  0  0  0
  134.0248  137.8538  161.5789 C   0  0  0  0  0  0  0  0  0  0  0  0
  134.9323  139.0118  162.0015 C   0  0  0  0  0  0  0  0  0  0  0  0
  135.6637  139.5505  160.8056 C   0  0  0  0  0  0  0  0  0  0  0  0
  136.6463  140.2357  160.9946 O   0  0  0  0  0  0  0  0  0  0  0  0
  135.2903  139.3160  159.5471 N   0  0  0  0  0  0  0  0  0  0  0  0
  134.1602  138.4748  159.1731 C   0  0  0  0  0  0  0  0  0  0  0  0
  130.7243  135.6732  160.9835 N   0  0  0  0  0  0  0  0  0  0  0  0
  131.1987  134.6692  160.0279 C   0  0  1  0  0  0  0  0  0  0  0  0
  131.5060  135.1622  159.1056 H   0  0  0  0  0  0  0  0  0  0  0  0
  132.3899  133.9182  160.6263 C   0  0  0  0  0  0  0  0  0  0  0  0
  130.0714  133.6797  159.7262 C   0  0  0  0  0  0  0  0  0  0  0  0
  130.3598  132.9703  158.4282 C   0  0  0  0  0  0  0  0  0  0  0  0
  131.0864  131.7941  158.4300 C   0  0  0  0  0  0  0  0  0  0  0  0
  131.3505  131.1431  157.2396 C   0  0  0  0  0  0  0  0  0  0  0  0
  130.8885  131.6685  156.0471 C   0  0  0  0  0  0  0  0  0  0  0  0
  130.1675  132.8477  156.0448 C   0  0  0  0  0  0  0  0  0  0  0  0
  129.9028  133.4985  157.2356 C   0  0  0  0  0  0  0  0  0  0  0  0
  129.1161  134.7839  157.2330 C   0  0  0  0  0  0  0  0  0  0  0  0
  128.5434  137.0479  162.0735 C   0  0  0  0  0  0  0  0  0  0  0  0
  128.3904  136.9870  160.7514 N   0  0  0  0  0  0  0  0  0  0  0  0
  127.1869  136.5627  160.4630 C   0  0  0  0  0  0  0  0  0  0  0  0
  126.5320  136.3494  161.6174 N   0  0  0  0  0  0  0  0  0  0  0  0
  125.6209  136.0324  161.7190 H   0  0  0  0  0  0  0  0  0  0  0  0
  127.4313  136.6704  162.6473 N   0  0  0  0  0  0  0  0  0  0  0  0
  130.5104  139.9659  165.0733 H   0  0  0  0  0  0  0  0  0  0  0  0
  131.4862  139.4934  163.6617 H   0  0  0  0  0  0  0  0  0  0  0  0
  131.1596  138.3129  164.9534 H   0  0  0  0  0  0  0  0  0  0  0  0
  129.1192  139.5186  163.0316 H   0  0  0  0  0  0  0  0  0  0  0  0
  128.7159  138.4440  164.3920 H   0  0  0  0  0  0  0  0  0  0  0  0
  132.2287  136.8327  159.1747 H   0  0  0  0  0  0  0  0  0  0  0  0
  132.7136  139.2436  160.5736 H   0  0  0  0  0  0  0  0  0  0  0  0
  134.6323  136.9868  161.3194 H   0  0  0  0  0  0  0  0  0  0  0  0
  133.3510  137.5982  162.3967 H   0  0  0  0  0  0  0  0  0  0  0  0
  135.6537  138.6567  162.7374 H   0  0  0  0  0  0  0  0  0  0  0  0
  134.3269  139.8043  162.4413 H   0  0  0  0  0  0  0  0  0  0  0  0
  135.8027  139.7313  158.8359 H   0  0  0  0  0  0  0  0  0  0  0  0
  133.6228  138.9399  158.3468 H   0  0  0  0  0  0  0  0  0  0  0  0
  134.5269  137.4974  158.8596 H   0  0  0  0  0  0  0  0  0  0  0  0
  130.0432  135.4403  161.6337 H   0  0  0  0  0  0  0  0  0  0  0  0
  132.7428  133.1713  159.9153 H   0  0  0  0  0  0  0  0  0  0  0  0
  132.0825  133.4254  161.5486 H   0  0  0  0  0  0  0  0  0  0  0  0
  133.1929  134.6231  160.8413 H   0  0  0  0  0  0  0  0  0  0  0  0
  129.1275  134.2185  159.6438 H   0  0  0  0  0  0  0  0  0  0  0  0
  130.0037  132.9492  160.5322 H   0  0  0  0  0  0  0  0  0  0  0  0
  131.4474  131.3836  159.3615 H   0  0  0  0  0  0  0  0  0  0  0  0
  131.9178  130.2242  157.2410 H   0  0  0  0  0  0  0  0  0  0  0  0
  131.0949  131.1600  155.1170 H   0  0  0  0  0  0  0  0  0  0  0  0
  129.8106  133.2606  155.1129 H   0  0  0  0  0  0  0  0  0  0  0  0
  129.3816  135.3740  158.1102 H   0  0  0  0  0  0  0  0  0  0  0  0
  129.3478  135.3498  156.3307 H   0  0  0  0  0  0  0  0  0  0  0  0
  128.0502  134.5575  157.2564 H   0  0  0  0  0  0  0  0  0  0  0  0
  126.7890  136.4102  159.4706 H   0  0  0  0  0  0  0  0  0  0  0  0
  1  2  1  0
  1 34  1  0
  1 35  1  0
  1 36  1  0
  2  3  1  0
  2 37  1  0
  2 38  1  0
  3  4  1  1
  3  5  1  0
  3 28  1  0
  5  6  1  0
  7  5  2  0
  7  8  1  0
  7 16  1  0
  8  9  1  0
  8 39  1  0
  9 15  1  0
  9 10  1  0
  9 40  1  1
 10 11  1  0
 10 41  1  0
 10 42  1  0
 11 12  1  0
 11 43  1  0
 11 44  1  0
 12 13  2  0
 12 14  1  0
 14 15  1  0
 14 45  1  0
 15 46  1  0
 15 47  1  0
 16 17  1  0
 16 48  1  0
 17 18  1  6
 17 19  1  0
 17 20  1  0
 19 49  1  0
 19 50  1  0
 19 51  1  0
 20 21  1  0
 20 52  1  0
 20 53  1  0
 21 26  1  0
 21 22  2  0
 22 23  1  0
 22 54  1  0
 23 24  2  0
 23 55  1  0
 24 25  1  0
 24 56  1  0
 25 26  2  0
 25 57  1  0
 26 27  1  0
 27 58  1  0
 27 59  1  0
 27 60  1  0
 28 33  2  0
 28 29  1  0
 29 30  2  0
 30 31  1  0
 30 61  1  0
 31 32  1  0
 31 33  1  0
M  CHG  1   5   1
M  END
>  <DOCK_score>  (1) 
-45.694859

>  <SMILES>  (1) 
CC[C@H]([NH+]=C(NC1CCC(=O)NC1)N[C@@H](C)Cc1ccccc1C)c1nc[nH]n1

$$$$
