CCc1ccc(-c2c[nH]c(N[C@@H](c3cccc4cc[nH]c34)c3ccnn3C)[nH+]2)cc1
     RDKit          3D

 55 59  0  0  1  0  0  0  0  0999 V2000
  130.5845  128.4422  151.6972 C   0  0  0  0  0  0  0  0  0  0  0  0
  131.6767  129.4525  152.0534 C   0  0  0  0  0  0  0  0  0  0  0  0
  131.2898  130.1887  153.3102 C   0  0  0  0  0  0  0  0  0  0  0  0
  131.6695  129.6922  154.5437 C   0  0  0  0  0  0  0  0  0  0  0  0
  131.3229  130.3650  155.6978 C   0  0  0  0  0  0  0  0  0  0  0  0
  130.5789  131.5409  155.6190 C   0  0  0  0  0  0  0  0  0  0  0  0
  130.1986  132.2656  156.8561 C   0  0  0  0  0  0  0  0  0  0  0  0
  129.4529  131.7695  157.8743 C   0  0  0  0  0  0  0  0  0  0  0  0
  129.3430  132.7681  158.8113 N   0  0  0  0  0  0  0  0  0  0  0  0
  128.8667  132.7148  159.6546 H   0  0  0  0  0  0  0  0  0  0  0  0
  130.0256  133.8461  158.3378 C   0  0  0  0  0  0  0  0  0  0  0  0
  130.1592  135.0632  158.9838 N   0  0  0  0  0  0  0  0  0  0  0  0
  129.1008  135.5376  159.8788 C   0  0  1  0  0  0  0  0  0  0  0  0
  128.9634  134.8226  160.6900 H   0  0  0  0  0  0  0  0  0  0  0  0
  129.4888  136.8770  160.4501 C   0  0  0  0  0  0  0  0  0  0  0  0
  129.7176  137.9462  159.6113 C   0  0  0  0  0  0  0  0  0  0  0  0
  130.0749  139.1849  160.1251 C   0  0  0  0  0  0  0  0  0  0  0  0
  130.2060  139.3657  161.4733 C   0  0  0  0  0  0  0  0  0  0  0  0
  129.9789  138.2963  162.3413 C   0  0  0  0  0  0  0  0  0  0  0  0
  130.0277  138.1382  163.7968 C   0  0  0  0  0  0  0  0  0  0  0  0
  129.6947  136.8656  164.0647 C   0  0  0  0  0  0  0  0  0  0  0  0
  129.4492  136.1924  162.8989 N   0  0  0  0  0  0  0  0  0  0  0  0
  129.1985  135.2574  162.8377 H   0  0  0  0  0  0  0  0  0  0  0  0
  129.6116  137.0397  161.8258 C   0  0  0  0  0  0  0  0  0  0  0  0
  127.8139  135.6745  159.1066 C   0  0  0  0  0  0  0  0  0  0  0  0
  127.7006  135.9693  157.7908 C   0  0  0  0  0  0  0  0  0  0  0  0
  126.3390  135.9990  157.4721 C   0  0  0  0  0  0  0  0  0  0  0  0
  125.6590  135.7393  158.5593 N   0  0  0  0  0  0  0  0  0  0  0  0
  126.5680  135.5308  159.6047 N   0  0  0  0  0  0  0  0  0  0  0  0
  126.2264  135.2124  160.9933 C   0  0  0  0  0  0  0  0  0  0  0  0
  130.5403  133.5400  157.1719 N   0  0  0  0  0  0  0  0  0  0  0  0
  131.0776  134.1311  156.6217 H   0  0  0  0  0  0  0  0  0  0  0  0
  130.1941  132.0338  154.3734 C   0  0  0  0  0  0  0  0  0  0  0  0
  130.5513  131.3558  153.2256 C   0  0  0  0  0  0  0  0  0  0  0  0
  130.8643  127.9099  150.7881 H   0  0  0  0  0  0  0  0  0  0  0  0
  130.4687  127.7300  152.5142 H   0  0  0  0  0  0  0  0  0  0  0  0
  129.6426  128.9665  151.5360 H   0  0  0  0  0  0  0  0  0  0  0  0
  132.6184  128.9288  152.2141 H   0  0  0  0  0  0  0  0  0  0  0  0
  131.7923  130.1653  151.2359 H   0  0  0  0  0  0  0  0  0  0  0  0
  132.2418  128.7783  154.6038 H   0  0  0  0  0  0  0  0  0  0  0  0
  131.6239  129.9788  156.6604 H   0  0  0  0  0  0  0  0  0  0  0  0
  129.0266  130.7792  157.9365 H   0  0  0  0  0  0  0  0  0  0  0  0
  130.9537  135.6018  158.8440 H   0  0  0  0  0  0  0  0  0  0  0  0
  129.6172  137.8189  158.5436 H   0  0  0  0  0  0  0  0  0  0  0  0
  130.2507  140.0127  159.4540 H   0  0  0  0  0  0  0  0  0  0  0  0
  130.4844  140.3326  161.8659 H   0  0  0  0  0  0  0  0  0  0  0  0
  130.2732  138.9034  164.5183 H   0  0  0  0  0  0  0  0  0  0  0  0
  129.6378  136.4346  165.0533 H   0  0  0  0  0  0  0  0  0  0  0  0
  128.5173  136.1480  157.1070 H   0  0  0  0  0  0  0  0  0  0  0  0
  125.9210  136.2047  156.4978 H   0  0  0  0  0  0  0  0  0  0  0  0
  126.1152  136.1363  161.5610 H   0  0  0  0  0  0  0  0  0  0  0  0
  125.2897  134.6555  161.0184 H   0  0  0  0  0  0  0  0  0  0  0  0
  127.0200  134.6086  161.4334 H   0  0  0  0  0  0  0  0  0  0  0  0
  129.6174  132.9446  154.3064 H   0  0  0  0  0  0  0  0  0  0  0  0
  130.2534  131.7366  152.2598 H   0  0  0  0  0  0  0  0  0  0  0  0
  1  2  1  0
  1 35  1  0
  1 36  1  0
  1 37  1  0
  2  3  1  0
  2 38  1  0
  2 39  1  0
  3 34  2  0
  3  4  1  0
  4  5  2  0
  4 40  1  0
  5  6  1  0
  5 41  1  0
  6  7  1  0
  6 33  2  0
  7 31  1  0
  7  8  2  0
  8  9  1  0
  8 42  1  0
  9 10  1  0
  9 11  1  0
 11 12  1  0
 11 31  2  0
 12 13  1  0
 12 43  1  0
 13 14  1  1
 13 15  1  0
 13 25  1  0
 15 24  1  0
 15 16  2  0
 16 17  1  0
 16 44  1  0
 17 18  2  0
 17 45  1  0
 18 19  1  0
 18 46  1  0
 19 24  2  0
 19 20  1  0
 20 21  2  0
 20 47  1  0
 21 22  1  0
 21 48  1  0
 22 23  1  0
 22 24  1  0
 25 29  1  0
 25 26  2  0
 26 27  1  0
 26 49  1  0
 27 28  2  0
 27 50  1  0
 28 29  1  0
 29 30  1  0
 30 51  1  0
 30 52  1  0
 30 53  1  0
 31 32  1  0
 33 34  1  0
 33 54  1  0
 34 55  1  0
M  CHG  1  31   1
M  END
>  <DOCK_score>  (1) 
-60.349682

>  <SMILES>  (1) 
CCc1ccc(-c2c[nH]c(N[C@@H](c3cccc4cc[nH]c34)c3ccnn3C)[nH+]2)cc1

$$$$
