Clc1cc2c(cc1-n1cc(C[NH2+][C@@H]3CCN(c4ccccc4)C3)cn1)CCC2
     RDKit          3D

 54 58  0  0  1  0  0  0  0  0999 V2000
  131.8704  130.1726  157.8172 Cl  0  0  0  0  0  0  0  0  0  0  0  0
  131.2202  130.5271  156.2470 C   0  0  0  0  0  0  0  0  0  0  0  0
  131.6240  129.7933  155.1487 C   0  0  0  0  0  0  0  0  0  0  0  0
  131.1118  130.0757  153.8931 C   0  0  0  0  0  0  0  0  0  0  0  0
  130.1879  131.0932  153.7367 C   0  0  0  0  0  0  0  0  0  0  0  0
  129.7771  131.8277  154.8350 C   0  0  0  0  0  0  0  0  0  0  0  0
  130.2886  131.5461  156.0931 C   0  0  0  0  0  0  0  0  0  0  0  0
  129.8712  132.2914  157.2050 N   0  0  0  0  0  0  0  0  0  0  0  0
  130.0002  133.6283  157.3609 C   0  0  0  0  0  0  0  0  0  0  0  0
  129.4775  133.9547  158.5658 C   0  0  0  0  0  0  0  0  0  0  0  0
  129.4098  135.3392  159.1572 C   0  0  0  0  0  0  0  0  0  0  0  0
  130.6266  135.5979  159.9385 N   0  0  0  0  0  0  0  0  0  0  0  0
  131.4337  135.5282  159.3370 H   0  0  0  0  0  0  0  0  0  0  0  0
  130.7005  134.9183  160.6806 H   0  0  0  0  0  0  0  0  0  0  0  0
  130.5606  136.9473  160.5151 C   0  0  2  0  0  0  0  0  0  0  0  0
  129.9387  136.9578  161.4102 H   0  0  0  0  0  0  0  0  0  0  0  0
  130.0481  137.9736  159.4704 C   0  0  0  0  0  0  0  0  0  0  0  0
  130.6648  139.3019  159.9566 C   0  0  0  0  0  0  0  0  0  0  0  0
  131.8334  138.9623  160.7889 N   0  0  0  0  0  0  0  0  0  0  0  0
  132.9913  139.5700  160.2981 C   0  0  0  0  0  0  0  0  0  0  0  0
  133.4329  139.2892  159.0112 C   0  0  0  0  0  0  0  0  0  0  0  0
  134.5815  139.8873  158.5314 C   0  0  0  0  0  0  0  0  0  0  0  0
  135.2856  140.7733  159.3260 C   0  0  0  0  0  0  0  0  0  0  0  0
  134.8456  141.0594  160.6054 C   0  0  0  0  0  0  0  0  0  0  0  0
  133.7009  140.4606  161.0937 C   0  0  0  0  0  0  0  0  0  0  0  0
  131.9789  137.4912  160.8182 C   0  0  0  0  0  0  0  0  0  0  0  0
  129.0054  132.7807  159.1628 C   0  0  0  0  0  0  0  0  0  0  0  0
  129.2407  131.7835  158.3483 N   0  0  0  0  0  0  0  0  0  0  0  0
  129.7868  131.2004  152.2808 C   0  0  0  0  0  0  0  0  0  0  0  0
  130.2266  129.8663  151.6414 C   0  0  0  0  0  0  0  0  0  0  0  0
  131.3934  129.4306  152.5528 C   0  0  0  0  0  0  0  0  0  0  0  0
  132.3451  128.9985  155.2688 H   0  0  0  0  0  0  0  0  0  0  0  0
  129.0556  132.6221  154.7122 H   0  0  0  0  0  0  0  0  0  0  0  0
  130.4432  134.3125  156.6523 H   0  0  0  0  0  0  0  0  0  0  0  0
  128.5379  135.4145  159.8069 H   0  0  0  0  0  0  0  0  0  0  0  0
  129.3300  136.0733  158.3553 H   0  0  0  0  0  0  0  0  0  0  0  0
  128.9595  138.0263  159.4841 H   0  0  0  0  0  0  0  0  0  0  0  0
  130.4104  137.7224  158.4736 H   0  0  0  0  0  0  0  0  0  0  0  0
  129.9356  139.8544  160.5492 H   0  0  0  0  0  0  0  0  0  0  0  0
  130.9795  139.9019  159.1027 H   0  0  0  0  0  0  0  0  0  0  0  0
  132.8812  138.6007  158.3886 H   0  0  0  0  0  0  0  0  0  0  0  0
  134.9279  139.6660  157.5326 H   0  0  0  0  0  0  0  0  0  0  0  0
  136.1808  141.2433  158.9464 H   0  0  0  0  0  0  0  0  0  0  0  0
  135.3974  141.7522  161.2233 H   0  0  0  0  0  0  0  0  0  0  0  0
  133.3576  140.6848  162.0928 H   0  0  0  0  0  0  0  0  0  0  0  0
  132.6825  137.1642  160.0526 H   0  0  0  0  0  0  0  0  0  0  0  0
  132.3090  137.1621  161.8036 H   0  0  0  0  0  0  0  0  0  0  0  0
  128.5290  132.7095  160.1295 H   0  0  0  0  0  0  0  0  0  0  0  0
  128.7073  131.3237  152.1941 H   0  0  0  0  0  0  0  0  0  0  0  0
  130.3015  132.0364  151.8073 H   0  0  0  0  0  0  0  0  0  0  0  0
  129.4175  129.1366  151.6723 H   0  0  0  0  0  0  0  0  0  0  0  0
  130.5676  130.0212  150.6177 H   0  0  0  0  0  0  0  0  0  0  0  0
  131.4112  128.3452  152.6516 H   0  0  0  0  0  0  0  0  0  0  0  0
  132.3413  129.7886  152.1508 H   0  0  0  0  0  0  0  0  0  0  0  0
  1  2  1  0
  2  7  2  0
  2  3  1  0
  3  4  2  0
  3 32  1  0
  4 31  1  0
  4  5  1  0
  5  6  2  0
  5 29  1  0
  6  7  1  0
  6 33  1  0
  7  8  1  0
  8 28  1  0
  8  9  1  0
  9 10  2  0
  9 34  1  0
 10 11  1  0
 10 27  1  0
 11 12  1  0
 11 35  1  0
 11 36  1  0
 12 13  1  0
 12 14  1  0
 12 15  1  0
 15 16  1  1
 15 26  1  0
 15 17  1  0
 17 18  1  0
 17 37  1  0
 17 38  1  0
 18 19  1  0
 18 39  1  0
 18 40  1  0
 19 20  1  0
 19 26  1  0
 20 25  1  0
 20 21  2  0
 21 22  1  0
 21 41  1  0
 22 23  2  0
 22 42  1  0
 23 24  1  0
 23 43  1  0
 24 25  2  0
 24 44  1  0
 25 45  1  0
 26 46  1  0
 26 47  1  0
 27 28  2  0
 27 48  1  0
 29 30  1  0
 29 49  1  0
 29 50  1  0
 30 31  1  0
 30 51  1  0
 30 52  1  0
 31 53  1  0
 31 54  1  0
M  CHG  1  12   1
M  END
>  <DOCK_score>  (1) 
-56.055202

>  <SMILES>  (1) 
Clc1cc2c(cc1-n1cc(C[NH2+][C@@H]3CCN(c4ccccc4)C3)cn1)CCC2

$$$$
