CC[C@H](c1cc[nH]n1)[NH+](CC1=CCCC1)Cc1cccc(-c2ccc(C)cc2)c1
     RDKit          3D

 61 64  0  0  1  0  0  0  0  0999 V2000
  127.3901  135.9425  156.7353 C   0  0  0  0  0  0  0  0  0  0  0  0
  128.7392  135.9676  157.4565 C   0  0  0  0  0  0  0  0  0  0  0  0
  128.8575  134.7386  158.3600 C   0  0  2  0  0  0  0  0  0  0  0  0
  128.7856  133.8346  157.7552 H   0  0  0  0  0  0  0  0  0  0  0  0
  127.7446  134.7530  159.3760 C   0  0  0  0  0  0  0  0  0  0  0  0
  127.1468  133.6281  159.9537 C   0  0  0  0  0  0  0  0  0  0  0  0
  126.1955  134.0580  160.8145 C   0  0  0  0  0  0  0  0  0  0  0  0
  126.1853  135.4070  160.7763 N   0  0  0  0  0  0  0  0  0  0  0  0
  125.6016  135.9881  161.2887 H   0  0  0  0  0  0  0  0  0  0  0  0
  127.1668  135.8198  159.8659 N   0  0  0  0  0  0  0  0  0  0  0  0
  130.1529  134.7626  159.0524 N   0  0  2  0  0  0  0  0  0  0  0  0
  130.8688  135.0792  158.4157 H   0  0  0  0  0  0  0  0  0  0  0  0
  130.4807  133.4110  159.5251 C   0  0  0  0  0  0  0  0  0  0  0  0
  130.5574  132.4723  158.3487 C   0  0  0  0  0  0  0  0  0  0  0  0
  130.9154  132.8256  157.1443 C   0  0  0  0  0  0  0  0  0  0  0  0
  130.8892  131.6457  156.2007 C   0  0  0  0  0  0  0  0  0  0  0  0
  130.8448  130.4046  157.1221 C   0  0  0  0  0  0  0  0  0  0  0  0
  130.2236  130.9997  158.4070 C   0  0  0  0  0  0  0  0  0  0  0  0
  130.0782  135.6777  160.1992 C   0  0  0  0  0  0  0  0  0  0  0  0
  131.4071  135.7025  160.9095 C   0  0  0  0  0  0  0  0  0  0  0  0
  131.6591  134.8078  161.9341 C   0  0  0  0  0  0  0  0  0  0  0  0
  132.8763  134.8252  162.5906 C   0  0  0  0  0  0  0  0  0  0  0  0
  133.8469  135.7367  162.2261 C   0  0  0  0  0  0  0  0  0  0  0  0
  133.5967  136.6430  161.1982 C   0  0  0  0  0  0  0  0  0  0  0  0
  134.6339  137.6293  160.8061 C   0  0  0  0  0  0  0  0  0  0  0  0
  134.7081  138.0800  159.4897 C   0  0  0  0  0  0  0  0  0  0  0  0
  135.6710  139.0018  159.1320 C   0  0  0  0  0  0  0  0  0  0  0  0
  136.5690  139.4691  160.0748 C   0  0  0  0  0  0  0  0  0  0  0  0
  137.6223  140.4705  159.6766 C   0  0  0  0  0  0  0  0  0  0  0  0
  136.5034  139.0207  161.3817 C   0  0  0  0  0  0  0  0  0  0  0  0
  135.5408  138.1036  161.7518 C   0  0  0  0  0  0  0  0  0  0  0  0
  132.3705  136.6173  160.5363 C   0  0  0  0  0  0  0  0  0  0  0  0
  127.2846  135.0020  156.1947 H   0  0  0  0  0  0  0  0  0  0  0  0
  126.5860  136.0341  157.4655 H   0  0  0  0  0  0  0  0  0  0  0  0
  127.3385  136.7737  156.0320 H   0  0  0  0  0  0  0  0  0  0  0  0
  128.8111  136.8715  158.0615 H   0  0  0  0  0  0  0  0  0  0  0  0
  129.5443  135.9573  156.7218 H   0  0  0  0  0  0  0  0  0  0  0  0
  127.4010  132.5984  159.7500 H   0  0  0  0  0  0  0  0  0  0  0  0
  125.5558  133.4334  161.4204 H   0  0  0  0  0  0  0  0  0  0  0  0
  131.4420  133.4290  160.0388 H   0  0  0  0  0  0  0  0  0  0  0  0
  129.7074  133.0692  160.2131 H   0  0  0  0  0  0  0  0  0  0  0  0
  131.1956  133.8291  156.8599 H   0  0  0  0  0  0  0  0  0  0  0  0
  131.7880  131.6292  155.5843 H   0  0  0  0  0  0  0  0  0  0  0  0
  129.9994  131.6839  155.5722 H   0  0  0  0  0  0  0  0  0  0  0  0
  131.8479  130.0230  157.3129 H   0  0  0  0  0  0  0  0  0  0  0  0
  130.2058  129.6279  156.7020 H   0  0  0  0  0  0  0  0  0  0  0  0
  130.6700  130.5440  159.2909 H   0  0  0  0  0  0  0  0  0  0  0  0
  129.1433  130.8551  158.4087 H   0  0  0  0  0  0  0  0  0  0  0  0
  129.3048  135.3360  160.8870 H   0  0  0  0  0  0  0  0  0  0  0  0
  129.8350  136.6808  159.8484 H   0  0  0  0  0  0  0  0  0  0  0  0
  130.9024  134.0933  162.2228 H   0  0  0  0  0  0  0  0  0  0  0  0
  133.0675  134.1248  163.3900 H   0  0  0  0  0  0  0  0  0  0  0  0
  134.7966  135.7499  162.7399 H   0  0  0  0  0  0  0  0  0  0  0  0
  134.0106  137.7122  158.7518 H   0  0  0  0  0  0  0  0  0  0  0  0
  135.7267  139.3552  158.1130 H   0  0  0  0  0  0  0  0  0  0  0  0
  138.5190  139.9442  159.3495 H   0  0  0  0  0  0  0  0  0  0  0  0
  137.2462  141.0889  158.8616 H   0  0  0  0  0  0  0  0  0  0  0  0
  137.8636  141.1030  160.5309 H   0  0  0  0  0  0  0  0  0  0  0  0
  137.2068  139.3887  162.1137 H   0  0  0  0  0  0  0  0  0  0  0  0
  135.4906  137.7539  162.7723 H   0  0  0  0  0  0  0  0  0  0  0  0
  132.1730  137.3151  159.7360 H   0  0  0  0  0  0  0  0  0  0  0  0
  1  2  1  0
  1 33  1  0
  1 34  1  0
  1 35  1  0
  2  3  1  0
  2 36  1  0
  2 37  1  0
  3  4  1  6
  3  5  1  0
  3 11  1  0
  5 10  2  0
  5  6  1  0
  6  7  2  0
  6 38  1  0
  7  8  1  0
  7 39  1  0
  8  9  1  0
  8 10  1  0
 11 12  1  6
 11 13  1  0
 11 19  1  0
 13 14  1  0
 13 40  1  0
 13 41  1  0
 14 18  1  0
 14 15  2  0
 15 16  1  0
 15 42  1  0
 16 17  1  0
 16 43  1  0
 16 44  1  0
 17 18  1  0
 17 45  1  0
 17 46  1  0
 18 47  1  0
 18 48  1  0
 19 20  1  0
 19 49  1  0
 19 50  1  0
 20 32  1  0
 20 21  2  0
 21 22  1  0
 21 51  1  0
 22 23  2  0
 22 52  1  0
 23 24  1  0
 23 53  1  0
 24 25  1  0
 24 32  2  0
 25 31  1  0
 25 26  2  0
 26 27  1  0
 26 54  1  0
 27 28  2  0
 27 55  1  0
 28 29  1  0
 28 30  1  0
 29 56  1  0
 29 57  1  0
 29 58  1  0
 30 31  2  0
 30 59  1  0
 31 60  1  0
 32 61  1  0
M  CHG  1  11   1
M  END
>  <DOCK_score>  (1) 
-50.586861

>  <SMILES>  (1) 
CC[C@H](c1cc[nH]n1)[NH+](CC1=CCCC1)Cc1cccc(-c2ccc(C)cc2)c1

$$$$
