CCc1ccc(C[C@H](/C=C/c2ccccc2)Nc2[nH]cc(-c3ccc(CC)cc3)[nH+]2)cc1
     RDKit          3D

 64 67  0  0  1  0  0  0  0  0999 V2000
  126.6070  131.1151  159.2692 C   0  0  0  0  0  0  0  0  0  0  0  0
  125.7659  132.3019  159.7435 C   0  0  0  0  0  0  0  0  0  0  0  0
  126.6760  133.4351  160.1420 C   0  0  0  0  0  0  0  0  0  0  0  0
  127.0579  134.3771  159.2052 C   0  0  0  0  0  0  0  0  0  0  0  0
  127.8931  135.4163  159.5706 C   0  0  0  0  0  0  0  0  0  0  0  0
  128.3461  135.5135  160.8729 C   0  0  0  0  0  0  0  0  0  0  0  0
  129.2570  136.6461  161.2713 C   0  0  0  0  0  0  0  0  0  0  0  0
  130.7135  136.2277  161.0600 C   0  0  2  0  0  0  0  0  0  0  0  0
  130.9326  135.3528  161.6720 H   0  0  0  0  0  0  0  0  0  0  0  0
  131.6243  137.3603  161.4582 C   0  0  0  0  0  0  0  0  0  0  0  0
  132.9387  137.2204  161.3580 C   0  0  0  0  0  0  0  0  0  0  0  0
  133.8321  138.3314  161.7485 C   0  0  0  0  0  0  0  0  0  0  0  0
  133.3668  139.3415  162.5913 C   0  0  0  0  0  0  0  0  0  0  0  0
  134.2079  140.3721  162.9574 C   0  0  0  0  0  0  0  0  0  0  0  0
  135.5059  140.4123  162.4807 C   0  0  0  0  0  0  0  0  0  0  0  0
  135.9715  139.4172  161.6399 C   0  0  0  0  0  0  0  0  0  0  0  0
  135.1426  138.3774  161.2715 C   0  0  0  0  0  0  0  0  0  0  0  0
  130.9279  135.9019  159.6479 N   0  0  0  0  0  0  0  0  0  0  0  0
  130.7332  134.6069  159.1990 C   0  0  0  0  0  0  0  0  0  0  0  0
  130.3448  133.5520  159.9662 N   0  0  0  0  0  0  0  0  0  0  0  0
  130.1568  133.5719  160.9175 H   0  0  0  0  0  0  0  0  0  0  0  0
  130.2690  132.4536  159.1446 C   0  0  0  0  0  0  0  0  0  0  0  0
  130.6072  132.8697  157.8991 C   0  0  0  0  0  0  0  0  0  0  0  0
  130.6595  132.0253  156.6806 C   0  0  0  0  0  0  0  0  0  0  0  0
  130.3962  132.5833  155.4309 C   0  0  0  0  0  0  0  0  0  0  0  0
  130.4519  131.7941  154.3001 C   0  0  0  0  0  0  0  0  0  0  0  0
  130.7568  130.4490  154.4067 C   0  0  0  0  0  0  0  0  0  0  0  0
  130.8095  129.5909  153.1690 C   0  0  0  0  0  0  0  0  0  0  0  0
  132.2289  129.6067  152.5977 C   0  0  0  0  0  0  0  0  0  0  0  0
  131.0139  129.8886  155.6451 C   0  0  0  0  0  0  0  0  0  0  0  0
  130.9666  130.6695  156.7820 C   0  0  0  0  0  0  0  0  0  0  0  0
  130.8924  134.1945  157.9651 N   0  0  0  0  0  0  0  0  0  0  0  0
  131.1662  134.7489  157.2177 H   0  0  0  0  0  0  0  0  0  0  0  0
  127.9685  134.5686  161.8086 C   0  0  0  0  0  0  0  0  0  0  0  0
  127.1292  133.5324  161.4444 C   0  0  0  0  0  0  0  0  0  0  0  0
  127.2094  131.4160  158.4120 H   0  0  0  0  0  0  0  0  0  0  0  0
  127.2620  130.7881  160.0767 H   0  0  0  0  0  0  0  0  0  0  0  0
  125.9488  130.2954  158.9809 H   0  0  0  0  0  0  0  0  0  0  0  0
  125.1636  132.0010  160.6006 H   0  0  0  0  0  0  0  0  0  0  0  0
  125.1109  132.6288  158.9358 H   0  0  0  0  0  0  0  0  0  0  0  0
  126.7042  134.3009  158.1876 H   0  0  0  0  0  0  0  0  0  0  0  0
  128.1917  136.1520  158.8385 H   0  0  0  0  0  0  0  0  0  0  0  0
  129.0974  136.8884  162.3220 H   0  0  0  0  0  0  0  0  0  0  0  0
  129.0379  137.5211  160.6593 H   0  0  0  0  0  0  0  0  0  0  0  0
  131.2062  138.2860  161.8253 H   0  0  0  0  0  0  0  0  0  0  0  0
  133.3567  136.2948  160.9910 H   0  0  0  0  0  0  0  0  0  0  0  0
  132.3521  139.3141  162.9600 H   0  0  0  0  0  0  0  0  0  0  0  0
  133.8506  141.1519  163.6138 H   0  0  0  0  0  0  0  0  0  0  0  0
  136.1587  141.2237  162.7664 H   0  0  0  0  0  0  0  0  0  0  0  0
  136.9860  139.4540  161.2714 H   0  0  0  0  0  0  0  0  0  0  0  0
  135.5073  137.6008  160.6157 H   0  0  0  0  0  0  0  0  0  0  0  0
  131.2065  136.5935  159.0274 H   0  0  0  0  0  0  0  0  0  0  0  0
  129.9886  131.4517  159.4342 H   0  0  0  0  0  0  0  0  0  0  0  0
  130.1534  133.6323  155.3471 H   0  0  0  0  0  0  0  0  0  0  0  0
  130.2521  132.2262  153.3309 H   0  0  0  0  0  0  0  0  0  0  0  0
  130.5318  128.5682  153.4238 H   0  0  0  0  0  0  0  0  0  0  0  0
  130.1145  129.9818  152.4260 H   0  0  0  0  0  0  0  0  0  0  0  0
  132.9240  129.2159  153.3407 H   0  0  0  0  0  0  0  0  0  0  0  0
  132.2670  128.9860  151.7025 H   0  0  0  0  0  0  0  0  0  0  0  0
  132.5065  130.6295  152.3429 H   0  0  0  0  0  0  0  0  0  0  0  0
  131.2518  128.8380  155.7223 H   0  0  0  0  0  0  0  0  0  0  0  0
  131.1675  130.2310  157.7483 H   0  0  0  0  0  0  0  0  0  0  0  0
  128.3261  134.6420  162.8249 H   0  0  0  0  0  0  0  0  0  0  0  0
  126.8311  132.7961  162.1762 H   0  0  0  0  0  0  0  0  0  0  0  0
  1  2  1  0
  1 36  1  0
  1 37  1  0
  1 38  1  0
  2  3  1  0
  2 39  1  0
  2 40  1  0
  3 35  2  0
  3  4  1  0
  4  5  2  0
  4 41  1  0
  5  6  1  0
  5 42  1  0
  6  7  1  0
  6 34  2  0
  7  8  1  0
  7 43  1  0
  7 44  1  0
  8  9  1  1
  8 10  1  0
  8 18  1  0
 10 11  2  0
 10 45  1  0
 11 12  1  0
 11 46  1  0
 12 17  1  0
 12 13  2  0
 13 14  1  0
 13 47  1  0
 14 15  2  0
 14 48  1  0
 15 16  1  0
 15 49  1  0
 16 17  2  0
 16 50  1  0
 17 51  1  0
 18 52  1  0
 19 18  1  0
 19 32  2  0
 19 20  1  0
 20 21  1  0
 20 22  1  0
 22 23  2  0
 22 53  1  0
 23 24  1  0
 23 32  1  0
 24 31  1  0
 24 25  2  0
 25 26  1  0
 25 54  1  0
 26 27  2  0
 26 55  1  0
 27 28  1  0
 27 30  1  0
 28 29  1  0
 28 56  1  0
 28 57  1  0
 29 58  1  0
 29 59  1  0
 29 60  1  0
 30 31  2  0
 30 61  1  0
 31 62  1  0
 32 33  1  0
 34 35  1  0
 34 63  1  0
 35 64  1  0
M  CHG  1  32   1
M  END
>  <DOCK_score>  (1) 
-58.986862

>  <SMILES>  (1) 
CCc1ccc(C[C@H](/C=C/c2ccccc2)Nc2[nH]cc(-c3ccc(CC)cc3)[nH+]2)cc1

$$$$
