O=C(OCc1ccc(Cc2ccccc2)cc1)c1c[nH]nc1-c1ccc(C2=CCC[NH2+]C2)cc1
     RDKit          3D

 62 66  0  0  0  0  0  0  0  0999 V2000
  129.4064  138.8998  161.1979 O   0  0  0  0  0  0  0  0  0  0  0  0
  128.7704  139.3998  162.1049 C   0  0  0  0  0  0  0  0  0  0  0  0
  129.1026  140.6212  162.5677 O   0  0  0  0  0  0  0  0  0  0  0  0
  130.2312  141.2811  161.9358 C   0  0  0  0  0  0  0  0  0  0  0  0
  131.4994  140.9127  162.6618 C   0  0  0  0  0  0  0  0  0  0  0  0
  132.6265  140.5546  161.9460 C   0  0  0  0  0  0  0  0  0  0  0  0
  133.7912  140.2214  162.6118 C   0  0  0  0  0  0  0  0  0  0  0  0
  133.8259  140.2366  163.9936 C   0  0  0  0  0  0  0  0  0  0  0  0
  135.0941  139.8683  164.7196 C   0  0  0  0  0  0  0  0  0  0  0  0
  135.9262  141.1060  164.9363 C   0  0  0  0  0  0  0  0  0  0  0  0
  136.8588  141.4864  163.9895 C   0  0  0  0  0  0  0  0  0  0  0  0
  137.6186  142.6243  164.1860 C   0  0  0  0  0  0  0  0  0  0  0  0
  137.4531  143.3762  165.3340 C   0  0  0  0  0  0  0  0  0  0  0  0
  136.5245  142.9927  166.2835 C   0  0  0  0  0  0  0  0  0  0  0  0
  135.7610  141.8577  166.0845 C   0  0  0  0  0  0  0  0  0  0  0  0
  132.6972  140.5892  164.7095 C   0  0  0  0  0  0  0  0  0  0  0  0
  131.5340  140.9275  164.0437 C   0  0  0  0  0  0  0  0  0  0  0  0
  127.6376  138.6717  162.6975 C   0  0  0  0  0  0  0  0  0  0  0  0
  126.8240  139.1027  163.7260 C   0  0  0  0  0  0  0  0  0  0  0  0
  125.9167  138.1439  163.9633 N   0  0  0  0  0  0  0  0  0  0  0  0
  125.2207  138.1882  164.6375 H   0  0  0  0  0  0  0  0  0  0  0  0
  126.1225  137.0736  163.0882 N   0  0  0  0  0  0  0  0  0  0  0  0
  127.1485  137.3435  162.3128 C   0  0  0  0  0  0  0  0  0  0  0  0
  127.7018  136.4742  161.2482 C   0  0  0  0  0  0  0  0  0  0  0  0
  126.8973  136.0861  160.1762 C   0  0  0  0  0  0  0  0  0  0  0  0
  127.4107  135.2780  159.1869 C   0  0  0  0  0  0  0  0  0  0  0  0
  128.7375  134.8471  159.2560 C   0  0  0  0  0  0  0  0  0  0  0  0
  129.2889  133.9799  158.1952 C   0  0  0  0  0  0  0  0  0  0  0  0
  129.7381  132.7919  158.5316 C   0  0  0  0  0  0  0  0  0  0  0  0
  130.3263  131.8414  157.5253 C   0  0  0  0  0  0  0  0  0  0  0  0
  129.9426  132.2885  156.1124 C   0  0  0  0  0  0  0  0  0  0  0  0
  130.2518  133.7202  155.9727 N   0  0  0  0  0  0  0  0  0  0  0  0
  130.1664  133.9913  155.0046 H   0  0  0  0  0  0  0  0  0  0  0  0
  131.1930  133.8963  156.2910 H   0  0  0  0  0  0  0  0  0  0  0  0
  129.3059  134.4946  156.7847 C   0  0  0  0  0  0  0  0  0  0  0  0
  129.5408  135.2321  160.3316 C   0  0  0  0  0  0  0  0  0  0  0  0
  129.0273  136.0439  161.3181 C   0  0  0  0  0  0  0  0  0  0  0  0
  130.3022  140.9629  160.8958 H   0  0  0  0  0  0  0  0  0  0  0  0
  130.0899  142.3612  161.9765 H   0  0  0  0  0  0  0  0  0  0  0  0
  132.5981  140.5388  160.8664 H   0  0  0  0  0  0  0  0  0  0  0  0
  134.6729  139.9456  162.0524 H   0  0  0  0  0  0  0  0  0  0  0  0
  134.8452  139.4246  165.6835 H   0  0  0  0  0  0  0  0  0  0  0  0
  135.6584  139.1507  164.1241 H   0  0  0  0  0  0  0  0  0  0  0  0
  136.9911  140.8965  163.0944 H   0  0  0  0  0  0  0  0  0  0  0  0
  138.3444  142.9238  163.4443 H   0  0  0  0  0  0  0  0  0  0  0  0
  138.0494  144.2632  165.4893 H   0  0  0  0  0  0  0  0  0  0  0  0
  136.3953  143.5800  167.1806 H   0  0  0  0  0  0  0  0  0  0  0  0
  135.0354  141.5581  166.8264 H   0  0  0  0  0  0  0  0  0  0  0  0
  132.7241  140.6007  165.7892 H   0  0  0  0  0  0  0  0  0  0  0  0
  130.6521  141.2030  164.6030 H   0  0  0  0  0  0  0  0  0  0  0  0
  126.9039  140.0453  164.2473 H   0  0  0  0  0  0  0  0  0  0  0  0
  125.8714  136.4193  160.1229 H   0  0  0  0  0  0  0  0  0  0  0  0
  126.7877  134.9771  158.3577 H   0  0  0  0  0  0  0  0  0  0  0  0
  129.6866  132.4882  159.5667 H   0  0  0  0  0  0  0  0  0  0  0  0
  129.9412  130.8376  157.7057 H   0  0  0  0  0  0  0  0  0  0  0  0
  131.4120  131.8365  157.6223 H   0  0  0  0  0  0  0  0  0  0  0  0
  128.8761  132.1274  155.9547 H   0  0  0  0  0  0  0  0  0  0  0  0
  130.5112  131.7179  155.3782 H   0  0  0  0  0  0  0  0  0  0  0  0
  129.6063  135.5424  156.7870 H   0  0  0  0  0  0  0  0  0  0  0  0
  128.3073  134.4067  156.3568 H   0  0  0  0  0  0  0  0  0  0  0  0
  130.5657  134.8959  160.3880 H   0  0  0  0  0  0  0  0  0  0  0  0
  129.6494  136.3445  162.1481 H   0  0  0  0  0  0  0  0  0  0  0  0
  1  2  2  0
  2  3  1  0
  2 18  1  0
  3  4  1  0
  4  5  1  0
  4 38  1  0
  4 39  1  0
  5 17  1  0
  5  6  2  0
  6  7  1  0
  6 40  1  0
  7  8  2  0
  7 41  1  0
  8  9  1  0
  8 16  1  0
  9 10  1  0
  9 42  1  0
  9 43  1  0
 10 15  1  0
 10 11  2  0
 11 12  1  0
 11 44  1  0
 12 13  2  0
 12 45  1  0
 13 14  1  0
 13 46  1  0
 14 15  2  0
 14 47  1  0
 15 48  1  0
 16 17  2  0
 16 49  1  0
 17 50  1  0
 18 23  1  0
 18 19  2  0
 19 20  1  0
 19 51  1  0
 20 21  1  0
 20 22  1  0
 22 23  2  0
 23 24  1  0
 24 37  1  0
 24 25  2  0
 25 26  1  0
 25 52  1  0
 26 27  2  0
 26 53  1  0
 27 28  1  0
 27 36  1  0
 28 35  1  0
 28 29  2  0
 29 30  1  0
 29 54  1  0
 30 31  1  0
 30 55  1  0
 30 56  1  0
 31 32  1  0
 31 57  1  0
 31 58  1  0
 32 33  1  0
 32 34  1  0
 32 35  1  0
 35 59  1  0
 35 60  1  0
 36 37  2  0
 36 61  1  0
 37 62  1  0
M  CHG  1  32   1
M  END
>  <DOCK_score>  (1) 
-44.0704

>  <SMILES>  (1) 
O=C(OCc1ccc(Cc2ccccc2)cc1)c1c[nH]nc1-c1ccc(C2=CCC[NH2+]C2)cc1

$$$$
