NNc1c(NCCSc2ccccc2)cccc1-c1cccc(F)c1NC1=[NH+]CCN1
     RDKit          3D

 57 60  0  0  0  0  0  0  0  0999 V2000
  126.2062  135.8399  161.5202 N   0  0  0  0  0  0  0  0  0  0  0  0
  127.3548  135.0044  161.2092 N   0  0  0  0  0  0  0  0  0  0  0  0
  127.9688  135.4179  160.0226 C   0  0  0  0  0  0  0  0  0  0  0  0
  128.4834  136.7084  159.9134 C   0  0  0  0  0  0  0  0  0  0  0  0
  128.3875  137.5949  160.9931 N   0  0  0  0  0  0  0  0  0  0  0  0
  129.2759  138.7575  161.0674 C   0  0  0  0  0  0  0  0  0  0  0  0
  128.9662  139.5559  162.3353 C   0  0  0  0  0  0  0  0  0  0  0  0
  129.2238  138.5039  163.7905 S   0  0  0  0  0  0  0  0  0  0  0  0
  128.8252  139.5764  165.1304 C   0  0  0  0  0  0  0  0  0  0  0  0
  128.9006  139.1142  166.4389 C   0  0  0  0  0  0  0  0  0  0  0  0
  128.5930  139.9592  167.4867 C   0  0  0  0  0  0  0  0  0  0  0  0
  128.1999  141.2610  167.2348 C   0  0  0  0  0  0  0  0  0  0  0  0
  128.1180  141.7228  165.9337 C   0  0  0  0  0  0  0  0  0  0  0  0
  128.4295  140.8852  164.8811 C   0  0  0  0  0  0  0  0  0  0  0  0
  129.0910  137.1133  158.7345 C   0  0  0  0  0  0  0  0  0  0  0  0
  129.1882  136.2408  157.6645 C   0  0  0  0  0  0  0  0  0  0  0  0
  128.6826  134.9608  157.7614 C   0  0  0  0  0  0  0  0  0  0  0  0
  128.0740  134.5374  158.9427 C   0  0  0  0  0  0  0  0  0  0  0  0
  127.5352  133.1604  159.0501 C   0  0  0  0  0  0  0  0  0  0  0  0
  126.1813  132.9569  159.3097 C   0  0  0  0  0  0  0  0  0  0  0  0
  125.6824  131.6737  159.4033 C   0  0  0  0  0  0  0  0  0  0  0  0
  126.5236  130.5849  159.2524 C   0  0  0  0  0  0  0  0  0  0  0  0
  127.8707  130.7736  159.0002 C   0  0  0  0  0  0  0  0  0  0  0  0
  128.6862  129.7064  158.8536 F   0  0  0  0  0  0  0  0  0  0  0  0
  128.3848  132.0598  158.8972 C   0  0  0  0  0  0  0  0  0  0  0  0
  129.7470  132.2537  158.6423 N   0  0  0  0  0  0  0  0  0  0  0  0
  130.5206  132.9409  159.5394 C   0  0  0  0  0  0  0  0  0  0  0  0
  131.5798  133.6461  159.1770 N   0  0  0  0  0  0  0  0  0  0  0  0
  131.9053  133.7440  158.2684 H   0  0  0  0  0  0  0  0  0  0  0  0
  132.1842  134.2608  160.3692 C   0  0  0  0  0  0  0  0  0  0  0  0
  131.2808  133.7747  161.5207 C   0  0  0  0  0  0  0  0  0  0  0  0
  130.2721  132.9487  160.8390 N   0  0  0  0  0  0  0  0  0  0  0  0
  125.5266  135.8123  160.7750 H   0  0  0  0  0  0  0  0  0  0  0  0
  125.7903  135.5702  162.3992 H   0  0  0  0  0  0  0  0  0  0  0  0
  128.0136  134.9963  161.9734 H   0  0  0  0  0  0  0  0  0  0  0  0
  127.7329  137.4392  161.6918 H   0  0  0  0  0  0  0  0  0  0  0  0
  130.3125  138.4216  161.0938 H   0  0  0  0  0  0  0  0  0  0  0  0
  129.1210  139.3897  160.1931 H   0  0  0  0  0  0  0  0  0  0  0  0
  129.6270  140.4208  162.3905 H   0  0  0  0  0  0  0  0  0  0  0  0
  127.9295  139.8918  162.3088 H   0  0  0  0  0  0  0  0  0  0  0  0
  129.2035  138.0963  166.6360 H   0  0  0  0  0  0  0  0  0  0  0  0
  128.6556  139.6019  168.5039 H   0  0  0  0  0  0  0  0  0  0  0  0
  127.9560  141.9185  168.0562 H   0  0  0  0  0  0  0  0  0  0  0  0
  127.8102  142.7399  165.7407 H   0  0  0  0  0  0  0  0  0  0  0  0
  128.3652  141.2464  163.8654 H   0  0  0  0  0  0  0  0  0  0  0  0
  129.4896  138.1135  158.6508 H   0  0  0  0  0  0  0  0  0  0  0  0
  129.6624  136.5635  156.7494 H   0  0  0  0  0  0  0  0  0  0  0  0
  128.7619  134.2845  156.9229 H   0  0  0  0  0  0  0  0  0  0  0  0
  125.5218  133.8031  159.4328 H   0  0  0  0  0  0  0  0  0  0  0  0
  124.6318  131.5182  159.5996 H   0  0  0  0  0  0  0  0  0  0  0  0
  126.1266  129.5836  159.3316 H   0  0  0  0  0  0  0  0  0  0  0  0
  130.1434  131.9012  157.8302 H   0  0  0  0  0  0  0  0  0  0  0  0
  132.1628  135.3483  160.2975 H   0  0  0  0  0  0  0  0  0  0  0  0
  133.2057  133.9064  160.5068 H   0  0  0  0  0  0  0  0  0  0  0  0
  130.8097  134.6201  162.0221 H   0  0  0  0  0  0  0  0  0  0  0  0
  131.8501  133.1764  162.2321 H   0  0  0  0  0  0  0  0  0  0  0  0
  129.5406  132.4828  161.2737 H   0  0  0  0  0  0  0  0  0  0  0  0
  1  2  1  0
  1 33  1  0
  1 34  1  0
  2  3  1  0
  2 35  1  0
  3 18  2  0
  3  4  1  0
  4  5  1  0
  4 15  2  0
  5  6  1  0
  5 36  1  0
  6  7  1  0
  6 37  1  0
  6 38  1  0
  7  8  1  0
  7 39  1  0
  7 40  1  0
  8  9  1  0
  9 14  1  0
  9 10  2  0
 10 11  1  0
 10 41  1  0
 11 12  2  0
 11 42  1  0
 12 13  1  0
 12 43  1  0
 13 14  2  0
 13 44  1  0
 14 45  1  0
 15 16  1  0
 15 46  1  0
 16 17  2  0
 16 47  1  0
 17 18  1  0
 17 48  1  0
 18 19  1  0
 19 25  1  0
 19 20  2  0
 20 21  1  0
 20 49  1  0
 21 22  2  0
 21 50  1  0
 22 23  1  0
 22 51  1  0
 23 24  1  0
 23 25  2  0
 25 26  1  0
 26 27  1  0
 26 52  1  0
 27 32  2  0
 27 28  1  0
 28 29  1  0
 28 30  1  0
 30 31  1  0
 30 53  1  0
 30 54  1  0
 31 32  1  0
 31 55  1  0
 31 56  1  0
 32 57  1  0
M  CHG  1  32   1
M  END
>  <DOCK_score>  (1) 
-43.341106

>  <SMILES>  (1) 
NNc1c(NCCSc2ccccc2)cccc1-c1cccc(F)c1NC1=[NH+]CCN1

$$$$
