O=C(Cc1ccccn1)C[C@H](Nc1[nH]cc(-c2ccc(Br)cc2)[nH+]1)C1=CCOCC1
     RDKit          3D

 54 57  0  0  1  0  0  0  0  0999 V2000
  132.8284  135.7978  161.4881 O   0  0  0  0  0  0  0  0  0  0  0  0
  132.1131  136.7568  161.6524 C   0  0  0  0  0  0  0  0  0  0  0  0
  132.6919  138.0490  162.1682 C   0  0  0  0  0  0  0  0  0  0  0  0
  133.7489  138.5423  161.2139 C   0  0  0  0  0  0  0  0  0  0  0  0
  134.8112  139.2843  161.6951 C   0  0  0  0  0  0  0  0  0  0  0  0
  135.7803  139.7294  160.8095 C   0  0  0  0  0  0  0  0  0  0  0  0
  135.6389  139.4187  159.4654 C   0  0  0  0  0  0  0  0  0  0  0  0
  134.5499  138.6720  159.0579 C   0  0  0  0  0  0  0  0  0  0  0  0
  133.6493  138.2613  159.9295 N   0  0  0  0  0  0  0  0  0  0  0  0
  130.6416  136.6613  161.3412 C   0  0  0  0  0  0  0  0  0  0  0  0
  130.3171  135.2536  160.8375 C   0  0  2  0  0  0  0  0  0  0  0  0
  130.8779  134.5214  161.4187 H   0  0  0  0  0  0  0  0  0  0  0  0
  130.6879  135.1430  159.4246 N   0  0  0  0  0  0  0  0  0  0  0  0
  130.4860  133.9526  158.7472 C   0  0  0  0  0  0  0  0  0  0  0  0
  129.9487  132.8201  159.2771 N   0  0  0  0  0  0  0  0  0  0  0  0
  129.6412  132.7027  160.1895 H   0  0  0  0  0  0  0  0  0  0  0  0
  129.9227  131.8740  158.2814 C   0  0  0  0  0  0  0  0  0  0  0  0
  130.4443  132.4549  157.1727 C   0  0  0  0  0  0  0  0  0  0  0  0
  130.6172  131.8097  155.8483 C   0  0  0  0  0  0  0  0  0  0  0  0
  130.5508  132.5735  154.6843 C   0  0  0  0  0  0  0  0  0  0  0  0
  130.7182  131.9693  153.4550 C   0  0  0  0  0  0  0  0  0  0  0  0
  130.9396  130.6052  153.3759 C   0  0  0  0  0  0  0  0  0  0  0  0
  131.1595  129.7826  151.6876 Br  0  0  0  0  0  0  0  0  0  0  0  0
  131.0011  129.8413  154.5286 C   0  0  0  0  0  0  0  0  0  0  0  0
  130.8410  130.4366  155.7633 C   0  0  0  0  0  0  0  0  0  0  0  0
  130.7757  133.7322  157.4879 N   0  0  0  0  0  0  0  0  0  0  0  0
  131.1669  134.3783  156.8793 H   0  0  0  0  0  0  0  0  0  0  0  0
  128.8408  134.9930  160.9914 C   0  0  0  0  0  0  0  0  0  0  0  0
  128.0462  135.3010  160.0099 C   0  0  0  0  0  0  0  0  0  0  0  0
  126.5606  135.0843  160.0650 C   0  0  0  0  0  0  0  0  0  0  0  0
  126.2297  134.2070  161.1434 O   0  0  0  0  0  0  0  0  0  0  0  0
  126.8287  134.5958  162.3859 C   0  0  0  0  0  0  0  0  0  0  0  0
  128.3425  134.3923  162.2768 C   0  0  0  0  0  0  0  0  0  0  0  0
  133.1373  137.8818  163.1488 H   0  0  0  0  0  0  0  0  0  0  0  0
  131.9006  138.7942  162.2507 H   0  0  0  0  0  0  0  0  0  0  0  0
  134.8869  139.5115  162.7482 H   0  0  0  0  0  0  0  0  0  0  0  0
  136.6234  140.3080  161.1574 H   0  0  0  0  0  0  0  0  0  0  0  0
  136.3730  139.7521  158.7469 H   0  0  0  0  0  0  0  0  0  0  0  0
  134.4347  138.4223  158.0135 H   0  0  0  0  0  0  0  0  0  0  0  0
  130.0655  136.8661  162.2437 H   0  0  0  0  0  0  0  0  0  0  0  0
  130.3847  137.3904  160.5728 H   0  0  0  0  0  0  0  0  0  0  0  0
  131.0748  135.9036  158.9636 H   0  0  0  0  0  0  0  0  0  0  0  0
  129.5564  130.8615  158.3654 H   0  0  0  0  0  0  0  0  0  0  0  0
  130.3734  133.6371  154.7446 H   0  0  0  0  0  0  0  0  0  0  0  0
  130.6711  132.5609  152.5527 H   0  0  0  0  0  0  0  0  0  0  0  0
  131.1745  128.7774  154.4617 H   0  0  0  0  0  0  0  0  0  0  0  0
  130.8890  129.8396  156.6620 H   0  0  0  0  0  0  0  0  0  0  0  0
  128.4729  135.7276  159.1143 H   0  0  0  0  0  0  0  0  0  0  0  0
  126.2216  134.6465  159.1261 H   0  0  0  0  0  0  0  0  0  0  0  0
  126.0663  136.0441  160.2154 H   0  0  0  0  0  0  0  0  0  0  0  0
  126.4327  133.9796  163.1931 H   0  0  0  0  0  0  0  0  0  0  0  0
  126.6128  135.6454  162.5856 H   0  0  0  0  0  0  0  0  0  0  0  0
  128.5673  133.3258  162.2903 H   0  0  0  0  0  0  0  0  0  0  0  0
  128.8353  134.8777  163.1192 H   0  0  0  0  0  0  0  0  0  0  0  0
  1  2  2  0
  2  3  1  0
  2 10  1  0
  3  4  1  0
  3 34  1  0
  3 35  1  0
  4  9  1  0
  4  5  2  0
  5  6  1  0
  5 36  1  0
  6  7  2  0
  6 37  1  0
  7  8  1  0
  7 38  1  0
  8  9  2  0
  8 39  1  0
 10 11  1  0
 10 40  1  0
 10 41  1  0
 11 12  1  1
 11 13  1  0
 11 28  1  0
 13 42  1  0
 14 13  1  0
 14 26  2  0
 14 15  1  0
 15 16  1  0
 15 17  1  0
 17 18  2  0
 17 43  1  0
 18 19  1  0
 18 26  1  0
 19 25  1  0
 19 20  2  0
 20 21  1  0
 20 44  1  0
 21 22  2  0
 21 45  1  0
 22 23  1  0
 22 24  1  0
 24 25  2  0
 24 46  1  0
 25 47  1  0
 26 27  1  0
 28 33  1  0
 28 29  2  0
 29 30  1  0
 29 48  1  0
 30 31  1  0
 30 49  1  0
 30 50  1  0
 31 32  1  0
 32 33  1  0
 32 51  1  0
 32 52  1  0
 33 53  1  0
 33 54  1  0
M  CHG  1  26   1
M  END
>  <DOCK_score>  (1) 
-60.951027

>  <SMILES>  (1) 
O=C(Cc1ccccn1)C[C@H](Nc1[nH]cc(-c2ccc(Br)cc2)[nH+]1)C1=CCOCC1

$$$$
