Nc1ccc(Nc2[nH]cc(-c3ccc(O)cc3)[nH+]2)cc1
     RDKit          3D

 35 37  0  0  1  0  0  0  0  0999 V2000
  126.4297  136.0937  162.0650 N   0  0  0  0  0  0  0  0  0  0  0  0
  127.3516  135.7708  161.0627 C   0  0  0  0  0  0  0  0  0  0  0  0
  128.5729  135.2020  161.3997 C   0  0  0  0  0  0  0  0  0  0  0  0
  129.4850  134.8892  160.4115 C   0  0  0  0  0  0  0  0  0  0  0  0
  129.1763  135.1328  159.0795 C   0  0  0  0  0  0  0  0  0  0  0  0
  130.0989  134.8096  158.0765 N   0  0  0  0  0  0  0  0  0  0  0  0
  130.0747  133.5545  157.4915 C   0  0  0  0  0  0  0  0  0  0  0  0
  129.6804  132.4031  158.1012 N   0  0  0  0  0  0  0  0  0  0  0  0
  129.3679  132.3147  159.0151 H   0  0  0  0  0  0  0  0  0  0  0  0
  129.8037  131.3896  157.1813 C   0  0  0  0  0  0  0  0  0  0  0  0
  130.2769  131.9492  156.0403 C   0  0  0  0  0  0  0  0  0  0  0  0
  130.5711  131.2342  154.7741 C   0  0  0  0  0  0  0  0  0  0  0  0
  129.8995  131.5823  153.6034 C   0  0  0  0  0  0  0  0  0  0  0  0
  130.1783  130.9185  152.4268 C   0  0  0  0  0  0  0  0  0  0  0  0
  131.1190  129.8987  152.4097 C   0  0  0  0  0  0  0  0  0  0  0  0
  131.3879  129.2435  151.2497 O   0  0  0  0  0  0  0  0  0  0  0  0
  131.7861  129.5460  153.5753 C   0  0  0  0  0  0  0  0  0  0  0  0
  131.5152  130.2090  154.7541 C   0  0  0  0  0  0  0  0  0  0  0  0
  130.4332  133.2782  156.2612 N   0  0  0  0  0  0  0  0  0  0  0  0
  130.7587  133.9216  155.6124 H   0  0  0  0  0  0  0  0  0  0  0  0
  127.9550  135.7015  158.7425 C   0  0  0  0  0  0  0  0  0  0  0  0
  127.0453  136.0196  159.7312 C   0  0  0  0  0  0  0  0  0  0  0  0
  126.6437  135.9201  162.9950 H   0  0  0  0  0  0  0  0  0  0  0  0
  125.5766  136.4910  161.8296 H   0  0  0  0  0  0  0  0  0  0  0  0
  128.8110  135.0084  162.4351 H   0  0  0  0  0  0  0  0  0  0  0  0
  130.4365  134.4509  160.6738 H   0  0  0  0  0  0  0  0  0  0  0  0
  130.7549  135.4649  157.7914 H   0  0  0  0  0  0  0  0  0  0  0  0
  129.5719  130.3465  157.3383 H   0  0  0  0  0  0  0  0  0  0  0  0
  129.1644  132.3734  153.6166 H   0  0  0  0  0  0  0  0  0  0  0  0
  129.6609  131.1901  151.5184 H   0  0  0  0  0  0  0  0  0  0  0  0
  130.8761  129.5571  150.4927 H   0  0  0  0  0  0  0  0  0  0  0  0
  132.5176  128.7516  153.5592 H   0  0  0  0  0  0  0  0  0  0  0  0
  132.0344  129.9346  155.6605 H   0  0  0  0  0  0  0  0  0  0  0  0
  127.7168  135.8947  157.7070 H   0  0  0  0  0  0  0  0  0  0  0  0
  126.0957  136.4624  159.4692 H   0  0  0  0  0  0  0  0  0  0  0  0
  1  2  1  0
  1 23  1  0
  1 24  1  0
  2 22  2  0
  2  3  1  0
  3  4  2  0
  3 25  1  0
  4  5  1  0
  4 26  1  0
  5  6  1  0
  5 21  2  0
  6 27  1  0
  7  6  1  0
  7 19  2  0
  7  8  1  0
  8  9  1  0
  8 10  1  0
 10 11  2  0
 10 28  1  0
 11 12  1  0
 11 19  1  0
 12 18  1  0
 12 13  2  0
 13 14  1  0
 13 29  1  0
 14 15  2  0
 14 30  1  0
 15 16  1  0
 15 17  1  0
 16 31  1  0
 17 18  2  0
 17 32  1  0
 18 33  1  0
 19 20  1  0
 21 22  1  0
 21 34  1  0
 22 35  1  0
M  CHG  1  19   1
M  END
>  <DOCK_score>  (1) 
-49.491547

>  <SMILES>  (1) 
Nc1ccc(Nc2[nH]cc(-c3ccc(O)cc3)[nH+]2)cc1

$$$$
