O[C@@H]1C=C[C@@H]([NH+]=C(NC2CC=CC2)N[C@@H]2Cc3ccc(Cl)cc3C2)[C@@H]1Cl
     RDKit          3D

 50 53  0  0  1  0  0  0  0  0999 V2000
  125.2084  135.6335  162.1954 O   0  0  0  0  0  0  0  0  0  0  0  0
  126.4172  135.6826  161.4350 C   0  0  2  0  0  0  0  0  0  0  0  0
  126.8918  136.6583  161.5404 H   0  0  0  0  0  0  0  0  0  0  0  0
  126.1389  135.3873  159.9795 C   0  0  0  0  0  0  0  0  0  0  0  0
  127.0189  134.5556  159.4920 C   0  0  0  0  0  0  0  0  0  0  0  0
  128.0309  134.1577  160.5411 C   0  0  1  0  0  0  0  0  0  0  0  0
  128.2051  133.0821  160.5119 H   0  0  0  0  0  0  0  0  0  0  0  0
  129.2868  134.8849  160.3405 N   0  0  0  0  0  0  0  0  0  0  0  0
  129.4259  135.7411  160.7743 H   0  0  0  0  0  0  0  0  0  0  0  0
  130.2171  134.3810  159.5791 C   0  0  0  0  0  0  0  0  0  0  0  0
  129.8762  133.5713  158.5216 N   0  0  0  0  0  0  0  0  0  0  0  0
  130.9218  133.0050  157.6659 C   0  0  0  0  0  0  0  0  0  0  0  0
  130.3545  132.6137  156.2815 C   0  0  0  0  0  0  0  0  0  0  0  0
  131.0781  131.3374  155.9175 C   0  0  0  0  0  0  0  0  0  0  0  0
  131.6461  130.8038  156.9645 C   0  0  0  0  0  0  0  0  0  0  0  0
  131.3959  131.6342  158.2018 C   0  0  0  0  0  0  0  0  0  0  0  0
  131.5390  134.6597  159.8334 N   0  0  0  0  0  0  0  0  0  0  0  0
  131.9023  135.5228  160.9601 C   0  0  2  0  0  0  0  0  0  0  0  0
  131.4572  136.5114  160.8479 H   0  0  0  0  0  0  0  0  0  0  0  0
  133.4359  135.6201  161.1045 C   0  0  0  0  0  0  0  0  0  0  0  0
  133.6894  135.6956  162.5949 C   0  0  0  0  0  0  0  0  0  0  0  0
  134.8132  136.1034  163.2944 C   0  0  0  0  0  0  0  0  0  0  0  0
  134.8167  136.0876  164.6751 C   0  0  0  0  0  0  0  0  0  0  0  0
  133.6939  135.6624  165.3631 C   0  0  0  0  0  0  0  0  0  0  0  0
  133.6950  135.6404  167.0990 Cl  0  0  0  0  0  0  0  0  0  0  0  0
  132.5719  135.2548  164.6665 C   0  0  0  0  0  0  0  0  0  0  0  0
  132.5675  135.2710  163.2819 C   0  0  0  0  0  0  0  0  0  0  0  0
  131.4834  134.8813  162.2999 C   0  0  0  0  0  0  0  0  0  0  0  0
  127.3831  134.5623  161.8856 C   0  0  2  0  0  0  0  0  0  0  0  0
  128.1304  134.9458  162.5803 H   0  0  0  0  0  0  0  0  0  0  0  0
  126.4797  133.1805  162.6105 Cl  0  0  0  0  0  0  0  0  0  0  0  0
  124.5648  136.3141  161.9552 H   0  0  0  0  0  0  0  0  0  0  0  0
  125.3191  135.8087  159.4166 H   0  0  0  0  0  0  0  0  0  0  0  0
  127.0232  134.1991  158.4725 H   0  0  0  0  0  0  0  0  0  0  0  0
  128.9434  133.3748  158.3423 H   0  0  0  0  0  0  0  0  0  0  0  0
  131.7585  133.6963  157.5646 H   0  0  0  0  0  0  0  0  0  0  0  0
  129.2812  132.4360  156.3475 H   0  0  0  0  0  0  0  0  0  0  0  0
  130.5669  133.3933  155.5500 H   0  0  0  0  0  0  0  0  0  0  0  0
  131.1198  130.9219  154.9215 H   0  0  0  0  0  0  0  0  0  0  0  0
  132.2194  129.8886  156.9486 H   0  0  0  0  0  0  0  0  0  0  0  0
  132.3159  131.7482  158.7751 H   0  0  0  0  0  0  0  0  0  0  0  0
  130.6202  131.1781  158.8170 H   0  0  0  0  0  0  0  0  0  0  0  0
  132.2315  134.2847  159.2667 H   0  0  0  0  0  0  0  0  0  0  0  0
  133.9124  134.7343  160.6843 H   0  0  0  0  0  0  0  0  0  0  0  0
  133.8059  136.5192  160.6119 H   0  0  0  0  0  0  0  0  0  0  0  0
  135.6898  136.4354  162.7578 H   0  0  0  0  0  0  0  0  0  0  0  0
  135.6945  136.4068  165.2173 H   0  0  0  0  0  0  0  0  0  0  0  0
  131.6957  134.9231  165.2038 H   0  0  0  0  0  0  0  0  0  0  0  0
  130.5203  135.2761  162.6234 H   0  0  0  0  0  0  0  0  0  0  0  0
  131.4346  133.7969  162.2012 H   0  0  0  0  0  0  0  0  0  0  0  0
  1  2  1  0
  1 32  1  0
  2  3  1  6
  2 29  1  0
  2  4  1  0
  4  5  2  0
  4 33  1  0
  5  6  1  0
  5 34  1  0
  6  7  1  1
  6  8  1  0
  6 29  1  0
  8  9  1  0
 10  8  2  0
 10 11  1  0
 10 17  1  0
 11 12  1  0
 11 35  1  0
 12 16  1  0
 12 13  1  0
 12 36  1  0
 13 14  1  0
 13 37  1  0
 13 38  1  0
 14 15  2  0
 14 39  1  0
 15 16  1  0
 15 40  1  0
 16 41  1  0
 16 42  1  0
 17 18  1  0
 17 43  1  0
 18 19  1  6
 18 28  1  0
 18 20  1  0
 20 21  1  0
 20 44  1  0
 20 45  1  0
 21 27  2  0
 21 22  1  0
 22 23  2  0
 22 46  1  0
 23 24  1  0
 23 47  1  0
 24 25  1  0
 24 26  2  0
 26 27  1  0
 26 48  1  0
 27 28  1  0
 28 49  1  0
 28 50  1  0
 29 30  1  1
 29 31  1  0
M  CHG  1   8   1
M  END
>  <DOCK_score>  (1) 
-42.675419

>  <SMILES>  (1) 
O[C@@H]1C=C[C@@H]([NH+]=C(NC2CC=CC2)N[C@@H]2Cc3ccc(Cl)cc3C2)[C@@H]1Cl

$$$$
