Cc1nn(-c2ccc(F)cc2)cc1C[NH2+][C@H]1CCC=C1N[C@@H]1C[C@H]1c1ccc(Cl)cc1Cl
     RDKit          3D

 58 62  0  0  1  0  0  0  0  0999 V2000
  129.8125  131.7387  160.5065 C   0  0  0  0  0  0  0  0  0  0  0  0
  130.0950  132.1189  159.0759 C   0  0  0  0  0  0  0  0  0  0  0  0
  130.4013  131.2919  158.1086 N   0  0  0  0  0  0  0  0  0  0  0  0
  130.5805  132.0369  156.9358 N   0  0  0  0  0  0  0  0  0  0  0  0
  130.9172  131.5233  155.6750 C   0  0  0  0  0  0  0  0  0  0  0  0
  131.0585  132.3790  154.5910 C   0  0  0  0  0  0  0  0  0  0  0  0
  131.3954  131.8718  153.3514 C   0  0  0  0  0  0  0  0  0  0  0  0
  131.5818  130.5095  153.1870 C   0  0  0  0  0  0  0  0  0  0  0  0
  131.9063  130.0147  151.9725 F   0  0  0  0  0  0  0  0  0  0  0  0
  131.4357  129.6537  154.2659 C   0  0  0  0  0  0  0  0  0  0  0  0
  131.1041  130.1577  155.5082 C   0  0  0  0  0  0  0  0  0  0  0  0
  130.3708  133.3388  157.2346 C   0  0  0  0  0  0  0  0  0  0  0  0
  130.0691  133.4157  158.5515 C   0  0  0  0  0  0  0  0  0  0  0  0
  129.7599  134.6758  159.3182 C   0  0  0  0  0  0  0  0  0  0  0  0
  131.0036  135.2330  159.8664 N   0  0  0  0  0  0  0  0  0  0  0  0
  131.4301  134.5593  160.4847 H   0  0  0  0  0  0  0  0  0  0  0  0
  131.6383  135.4458  159.1116 H   0  0  0  0  0  0  0  0  0  0  0  0
  130.7021  136.4613  160.6138 C   0  0  1  0  0  0  0  0  0  0  0  0
  129.9475  137.0479  160.0898 H   0  0  0  0  0  0  0  0  0  0  0  0
  130.2207  136.1178  162.0424 C   0  0  0  0  0  0  0  0  0  0  0  0
  131.5410  136.2023  162.8424 C   0  0  0  0  0  0  0  0  0  0  0  0
  132.4193  137.1338  162.0397 C   0  0  0  0  0  0  0  0  0  0  0  0
  131.9586  137.2760  160.8158 C   0  0  0  0  0  0  0  0  0  0  0  0
  132.5485  138.0688  159.8396 N   0  0  0  0  0  0  0  0  0  0  0  0
  133.2970  139.2682  160.2234 C   0  0  2  0  0  0  0  0  0  0  0  0
  132.7282  140.0241  160.7650 H   0  0  0  0  0  0  0  0  0  0  0  0
  134.3889  139.7552  159.2688 C   0  0  0  0  0  0  0  0  0  0  0  0
  134.7708  139.0926  160.5948 C   0  0  1  0  0  0  0  0  0  0  0  0
  135.1834  138.0845  160.5536 H   0  0  0  0  0  0  0  0  0  0  0  0
  135.3251  139.9781  161.6809 C   0  0  0  0  0  0  0  0  0  0  0  0
  134.4998  140.4271  162.6949 C   0  0  0  0  0  0  0  0  0  0  0  0
  135.0075  141.2389  163.6915 C   0  0  0  0  0  0  0  0  0  0  0  0
  136.3426  141.6025  163.6750 C   0  0  0  0  0  0  0  0  0  0  0  0
  136.9800  142.6224  164.9267 Cl  0  0  0  0  0  0  0  0  0  0  0  0
  137.1689  141.1535  162.6608 C   0  0  0  0  0  0  0  0  0  0  0  0
  136.6612  140.3367  161.6661 C   0  0  0  0  0  0  0  0  0  0  0  0
  137.6991  139.7672  160.3964 Cl  0  0  0  0  0  0  0  0  0  0  0  0
  130.7415  131.7536  161.0766 H   0  0  0  0  0  0  0  0  0  0  0  0
  129.1093  132.4501  160.9393 H   0  0  0  0  0  0  0  0  0  0  0  0
  129.3827  130.7376  160.5384 H   0  0  0  0  0  0  0  0  0  0  0  0
  130.9088  133.4410  154.7179 H   0  0  0  0  0  0  0  0  0  0  0  0
  131.5099  132.5378  152.5089 H   0  0  0  0  0  0  0  0  0  0  0  0
  131.5814  128.5916  154.1358 H   0  0  0  0  0  0  0  0  0  0  0  0
  130.9898  129.4900  156.3493 H   0  0  0  0  0  0  0  0  0  0  0  0
  130.4334  134.1684  156.5459 H   0  0  0  0  0  0  0  0  0  0  0  0
  129.2991  135.4036  158.6501 H   0  0  0  0  0  0  0  0  0  0  0  0
  129.0741  134.4459  160.1337 H   0  0  0  0  0  0  0  0  0  0  0  0
  129.4997  136.8533  162.3991 H   0  0  0  0  0  0  0  0  0  0  0  0
  129.8024  135.1122  162.0825 H   0  0  0  0  0  0  0  0  0  0  0  0
  131.3576  136.6145  163.8347 H   0  0  0  0  0  0  0  0  0  0  0  0
  132.0011  135.2173  162.9206 H   0  0  0  0  0  0  0  0  0  0  0  0
  133.3064  137.6182  162.4202 H   0  0  0  0  0  0  0  0  0  0  0  0
  132.4649  137.8282  158.9035 H   0  0  0  0  0  0  0  0  0  0  0  0
  134.5504  139.1833  158.3550 H   0  0  0  0  0  0  0  0  0  0  0  0
  134.5387  140.8314  159.1827 H   0  0  0  0  0  0  0  0  0  0  0  0
  133.4576  140.1438  162.7080 H   0  0  0  0  0  0  0  0  0  0  0  0
  134.3624  141.5891  164.4836 H   0  0  0  0  0  0  0  0  0  0  0  0
  138.2110  141.4369  162.6477 H   0  0  0  0  0  0  0  0  0  0  0  0
  1  2  1  0
  1 38  1  0
  1 39  1  0
  1 40  1  0
  2 13  1  0
  2  3  2  0
  3  4  1  0
  4  5  1  0
  4 12  1  0
  5 11  1  0
  5  6  2  0
  6  7  1  0
  6 41  1  0
  7  8  2  0
  7 42  1  0
  8  9  1  0
  8 10  1  0
 10 11  2  0
 10 43  1  0
 11 44  1  0
 12 13  2  0
 12 45  1  0
 13 14  1  0
 14 15  1  0
 14 46  1  0
 14 47  1  0
 15 16  1  0
 15 17  1  0
 15 18  1  0
 18 19  1  6
 18 23  1  0
 18 20  1  0
 20 21  1  0
 20 48  1  0
 20 49  1  0
 21 22  1  0
 21 50  1  0
 21 51  1  0
 22 23  2  0
 22 52  1  0
 23 24  1  0
 24 25  1  0
 24 53  1  0
 25 26  1  1
 25 28  1  0
 25 27  1  0
 27 28  1  0
 27 54  1  0
 27 55  1  0
 28 29  1  6
 28 30  1  0
 30 36  1  0
 30 31  2  0
 31 32  1  0
 31 56  1  0
 32 33  2  0
 32 57  1  0
 33 34  1  0
 33 35  1  0
 35 36  2  0
 35 58  1  0
 36 37  1  0
M  CHG  1  15   1
M  END
>  <DOCK_score>  (1) 
-61.86676

>  <SMILES>  (1) 
Cc1nn(-c2ccc(F)cc2)cc1C[NH2+][C@H]1CCC=C1N[C@@H]1C[C@H]1c1ccc(Cl)cc1Cl

$$$$
