CCc1ccc(-c2c[nH]c(N[C@H](CC=C3CCSCC3)c3ccc(CC)cc3)[nH+]2)cc1
     RDKit          3D

 65 68  0  0  1  0  0  0  0  0999 V2000
  132.1797  129.6210  152.5794 C   0  0  0  0  0  0  0  0  0  0  0  0
  130.7637  129.6381  153.1585 C   0  0  0  0  0  0  0  0  0  0  0  0
  130.7434  130.4749  154.4117 C   0  0  0  0  0  0  0  0  0  0  0  0
  130.4787  131.8302  154.3311 C   0  0  0  0  0  0  0  0  0  0  0  0
  130.4593  132.6015  155.4752 C   0  0  0  0  0  0  0  0  0  0  0  0
  130.7068  132.0124  156.7138 C   0  0  0  0  0  0  0  0  0  0  0  0
  130.6875  132.8361  157.9472 C   0  0  0  0  0  0  0  0  0  0  0  0
  130.3460  132.4078  159.1877 C   0  0  0  0  0  0  0  0  0  0  0  0
  130.4598  133.4884  160.0280 N   0  0  0  0  0  0  0  0  0  0  0  0
  130.2793  133.4967  160.9810 H   0  0  0  0  0  0  0  0  0  0  0  0
  130.8728  134.5454  159.2766 C   0  0  0  0  0  0  0  0  0  0  0  0
  131.1086  135.8259  159.7469 N   0  0  0  0  0  0  0  0  0  0  0  0
  130.9144  136.1323  161.1664 C   0  0  2  0  0  0  0  0  0  0  0  0
  131.2807  135.3024  161.7707 H   0  0  0  0  0  0  0  0  0  0  0  0
  129.4248  136.3460  161.4429 C   0  0  0  0  0  0  0  0  0  0  0  0
  129.2251  136.6612  162.9030 C   0  0  0  0  0  0  0  0  0  0  0  0
  128.0200  136.8824  163.3665 C   0  0  0  0  0  0  0  0  0  0  0  0
  126.8227  136.6551  162.4806 C   0  0  0  0  0  0  0  0  0  0  0  0
  125.9487  135.5468  163.0885 C   0  0  0  0  0  0  0  0  0  0  0  0
  125.4532  136.0383  164.7653 S   0  0  0  0  0  0  0  0  0  0  0  0
  127.0502  136.3270  165.5806 C   0  0  0  0  0  0  0  0  0  0  0  0
  127.8383  137.3686  164.7808 C   0  0  0  0  0  0  0  0  0  0  0  0
  131.6754  137.3844  161.5187 C   0  0  0  0  0  0  0  0  0  0  0  0
  131.3840  138.5738  160.8774 C   0  0  0  0  0  0  0  0  0  0  0  0
  132.0794  139.7232  161.2035 C   0  0  0  0  0  0  0  0  0  0  0  0
  133.0721  139.6812  162.1646 C   0  0  0  0  0  0  0  0  0  0  0  0
  133.8334  140.9333  162.5165 C   0  0  0  0  0  0  0  0  0  0  0  0
  135.0646  141.0517  161.6160 C   0  0  0  0  0  0  0  0  0  0  0  0
  133.3669  138.4908  162.8023 C   0  0  0  0  0  0  0  0  0  0  0  0
  132.6687  137.3423  162.4792 C   0  0  0  0  0  0  0  0  0  0  0  0
  131.0107  134.1509  158.0344 N   0  0  0  0  0  0  0  0  0  0  0  0
  131.2945  134.7107  157.2947 H   0  0  0  0  0  0  0  0  0  0  0  0
  130.9783  130.6473  156.7885 C   0  0  0  0  0  0  0  0  0  0  0  0
  130.9893  129.8847  155.6384 C   0  0  0  0  0  0  0  0  0  0  0  0
  132.1942  129.0158  151.6730 H   0  0  0  0  0  0  0  0  0  0  0  0
  132.4872  130.6393  152.3414 H   0  0  0  0  0  0  0  0  0  0  0  0
  132.8664  129.1958  153.3113 H   0  0  0  0  0  0  0  0  0  0  0  0
  130.4561  128.6198  153.3966 H   0  0  0  0  0  0  0  0  0  0  0  0
  130.0769  130.0633  152.4266 H   0  0  0  0  0  0  0  0  0  0  0  0
  130.2869  132.2858  153.3707 H   0  0  0  0  0  0  0  0  0  0  0  0
  130.2525  133.6596  155.4110 H   0  0  0  0  0  0  0  0  0  0  0  0
  130.0394  131.4092  159.4617 H   0  0  0  0  0  0  0  0  0  0  0  0
  131.4023  136.5204  159.1367 H   0  0  0  0  0  0  0  0  0  0  0  0
  129.0585  137.1759  160.8387 H   0  0  0  0  0  0  0  0  0  0  0  0
  128.8744  135.4403  161.1882 H   0  0  0  0  0  0  0  0  0  0  0  0
  130.0756  136.7046  163.5672 H   0  0  0  0  0  0  0  0  0  0  0  0
  126.2458  137.5769  162.4056 H   0  0  0  0  0  0  0  0  0  0  0  0
  127.1572  136.3539  161.4878 H   0  0  0  0  0  0  0  0  0  0  0  0
  126.5146  134.6163  163.1336 H   0  0  0  0  0  0  0  0  0  0  0  0
  125.0606  135.4055  162.4726 H   0  0  0  0  0  0  0  0  0  0  0  0
  127.6135  135.3946  165.6196 H   0  0  0  0  0  0  0  0  0  0  0  0
  126.8831  136.6945  166.5930 H   0  0  0  0  0  0  0  0  0  0  0  0
  128.8146  137.5184  165.2418 H   0  0  0  0  0  0  0  0  0  0  0  0
  127.2911  138.3114  164.7736 H   0  0  0  0  0  0  0  0  0  0  0  0
  130.6110  138.6058  160.1240 H   0  0  0  0  0  0  0  0  0  0  0  0
  131.8494  140.6532  160.7049 H   0  0  0  0  0  0  0  0  0  0  0  0
  133.1915  141.8021  162.3704 H   0  0  0  0  0  0  0  0  0  0  0  0
  134.1488  140.8858  163.5588 H   0  0  0  0  0  0  0  0  0  0  0  0
  134.7492  141.0992  160.5737 H   0  0  0  0  0  0  0  0  0  0  0  0
  135.6152  141.9573  161.8706 H   0  0  0  0  0  0  0  0  0  0  0  0
  135.7065  140.1829  161.7621 H   0  0  0  0  0  0  0  0  0  0  0  0
  134.1426  138.4580  163.5529 H   0  0  0  0  0  0  0  0  0  0  0  0
  132.8992  136.4121  162.9773 H   0  0  0  0  0  0  0  0  0  0  0  0
  131.1755  130.1864  157.7451 H   0  0  0  0  0  0  0  0  0  0  0  0
  131.1951  128.8260  155.6955 H   0  0  0  0  0  0  0  0  0  0  0  0
  1  2  1  0
  1 35  1  0
  1 36  1  0
  1 37  1  0
  2  3  1  0
  2 38  1  0
  2 39  1  0
  3 34  2  0
  3  4  1  0
  4  5  2  0
  4 40  1  0
  5  6  1  0
  5 41  1  0
  6  7  1  0
  6 33  2  0
  7 31  1  0
  7  8  2  0
  8  9  1  0
  8 42  1  0
  9 10  1  0
  9 11  1  0
 11 12  1  0
 11 31  2  0
 12 13  1  0
 12 43  1  0
 13 14  1  1
 13 15  1  0
 13 23  1  0
 15 16  1  0
 15 44  1  0
 15 45  1  0
 16 17  2  0
 16 46  1  0
 17 22  1  0
 17 18  1  0
 18 19  1  0
 18 47  1  0
 18 48  1  0
 19 20  1  0
 19 49  1  0
 19 50  1  0
 20 21  1  0
 21 22  1  0
 21 51  1  0
 21 52  1  0
 22 53  1  0
 22 54  1  0
 23 30  1  0
 23 24  2  0
 24 25  1  0
 24 55  1  0
 25 26  2  0
 25 56  1  0
 26 27  1  0
 26 29  1  0
 27 28  1  0
 27 57  1  0
 27 58  1  0
 28 59  1  0
 28 60  1  0
 28 61  1  0
 29 30  2  0
 29 62  1  0
 30 63  1  0
 31 32  1  0
 33 34  1  0
 33 64  1  0
 34 65  1  0
M  CHG  1  31   1
M  END
>  <DOCK_score>  (1) 
-56.624924

>  <SMILES>  (1) 
CCc1ccc(-c2c[nH]c(N[C@H](CC=C3CCSCC3)c3ccc(CC)cc3)[nH+]2)cc1

$$$$
