Oc1cccc(CNC2=C[C@H]([NH2+]C3Cc4cccc(O)c4C3)CCC2)c1
     RDKit          3D

 53 56  0  0  1  0  0  0  0  0999 V2000
  123.8290  134.9648  161.9394 O   0  0  0  0  0  0  0  0  0  0  0  0
  124.5563  134.2488  161.0420 C   0  0  0  0  0  0  0  0  0  0  0  0
  124.4307  132.8678  160.9896 C   0  0  0  0  0  0  0  0  0  0  0  0
  125.1711  132.1422  160.0770 C   0  0  0  0  0  0  0  0  0  0  0  0
  126.0329  132.7914  159.2121 C   0  0  0  0  0  0  0  0  0  0  0  0
  126.1640  134.1665  159.2660 C   0  0  0  0  0  0  0  0  0  0  0  0
  127.1087  134.8702  158.3261 C   0  0  0  0  0  0  0  0  0  0  0  0
  127.8888  135.8625  159.0698 N   0  0  0  0  0  0  0  0  0  0  0  0
  128.9878  135.4624  159.8193 C   0  0  0  0  0  0  0  0  0  0  0  0
  129.9708  136.3078  159.9658 C   0  0  0  0  0  0  0  0  0  0  0  0
  131.2142  136.0186  160.7550 C   0  0  2  0  0  0  0  0  0  0  0  0
  131.1550  136.5263  161.7178 H   0  0  0  0  0  0  0  0  0  0  0  0
  132.3851  136.5101  160.0165 N   0  0  0  0  0  0  0  0  0  0  0  0
  133.2150  136.0466  160.3550 H   0  0  0  0  0  0  0  0  0  0  0  0
  132.2686  136.3156  159.0333 H   0  0  0  0  0  0  0  0  0  0  0  0
  132.5173  137.9593  160.2167 C   0  0  2  0  0  0  0  0  0  0  0  0
  133.5247  138.5620  159.2147 C   0  0  0  0  0  0  0  0  0  0  0  0
  134.2314  139.6628  159.9770 C   0  0  0  0  0  0  0  0  0  0  0  0
  134.9883  140.7285  159.5181 C   0  0  0  0  0  0  0  0  0  0  0  0
  135.5459  141.6234  160.4103 C   0  0  0  0  0  0  0  0  0  0  0  0
  135.3501  141.4580  161.7680 C   0  0  0  0  0  0  0  0  0  0  0  0
  134.5939  140.3929  162.2317 C   0  0  0  0  0  0  0  0  0  0  0  0
  134.4003  140.2287  163.5668 O   0  0  0  0  0  0  0  0  0  0  0  0
  134.0327  139.4931  161.3333 C   0  0  0  0  0  0  0  0  0  0  0  0
  133.1790  138.2672  161.5768 C   0  0  0  0  0  0  0  0  0  0  0  0
  131.3544  134.5122  160.9838 C   0  0  0  0  0  0  0  0  0  0  0  0
  130.0217  133.9762  161.5214 C   0  0  0  0  0  0  0  0  0  0  0  0
  128.9729  134.0838  160.4124 C   0  0  0  0  0  0  0  0  0  0  0  0
  125.4255  134.8969  160.1771 C   0  0  0  0  0  0  0  0  0  0  0  0
  123.9846  135.9183  161.9003 H   0  0  0  0  0  0  0  0  0  0  0  0
  123.7541  132.3609  161.6619 H   0  0  0  0  0  0  0  0  0  0  0  0
  125.0733  131.0675  160.0357 H   0  0  0  0  0  0  0  0  0  0  0  0
  126.6075  132.2227  158.4958 H   0  0  0  0  0  0  0  0  0  0  0  0
  126.5378  135.3693  157.5432 H   0  0  0  0  0  0  0  0  0  0  0  0
  127.7829  134.1415  157.8756 H   0  0  0  0  0  0  0  0  0  0  0  0
  127.6378  136.7990  159.0388 H   0  0  0  0  0  0  0  0  0  0  0  0
  129.8844  137.2741  159.4909 H   0  0  0  0  0  0  0  0  0  0  0  0
  131.5471  138.4498  160.1379 H   0  0  0  0  0  0  0  0  0  0  0  0
  134.2399  137.8040  158.8952 H   0  0  0  0  0  0  0  0  0  0  0  0
  133.0002  138.9752  158.3533 H   0  0  0  0  0  0  0  0  0  0  0  0
  135.1429  140.8603  158.4574 H   0  0  0  0  0  0  0  0  0  0  0  0
  136.1344  142.4526  160.0467 H   0  0  0  0  0  0  0  0  0  0  0  0
  135.7856  142.1570  162.4666 H   0  0  0  0  0  0  0  0  0  0  0  0
  133.8605  139.4593  163.7940 H   0  0  0  0  0  0  0  0  0  0  0  0
  132.4182  138.4791  162.3282 H   0  0  0  0  0  0  0  0  0  0  0  0
  133.7995  137.4291  161.8939 H   0  0  0  0  0  0  0  0  0  0  0  0
  131.5941  134.0192  160.0416 H   0  0  0  0  0  0  0  0  0  0  0  0
  132.1472  134.3238  161.7077 H   0  0  0  0  0  0  0  0  0  0  0  0
  130.1382  132.9329  161.8152 H   0  0  0  0  0  0  0  0  0  0  0  0
  129.7084  134.5690  162.3808 H   0  0  0  0  0  0  0  0  0  0  0  0
  129.1937  133.3533  159.6342 H   0  0  0  0  0  0  0  0  0  0  0  0
  127.9859  133.8797  160.8275 H   0  0  0  0  0  0  0  0  0  0  0  0
  125.5254  135.9716  160.2161 H   0  0  0  0  0  0  0  0  0  0  0  0
  1  2  1  0
  1 30  1  0
  2 29  2  0
  2  3  1  0
  3  4  2  0
  3 31  1  0
  4  5  1  0
  4 32  1  0
  5  6  2  0
  5 33  1  0
  6  7  1  0
  6 29  1  0
  7  8  1  0
  7 34  1  0
  7 35  1  0
  8  9  1  0
  8 36  1  0
  9 28  1  0
  9 10  2  0
 10 11  1  0
 10 37  1  0
 11 12  1  1
 11 13  1  0
 11 26  1  0
 13 14  1  0
 13 15  1  0
 13 16  1  0
 16 25  1  0
 16 17  1  0
 16 38  1  1
 17 18  1  0
 17 39  1  0
 17 40  1  0
 18 24  2  0
 18 19  1  0
 19 20  2  0
 19 41  1  0
 20 21  1  0
 20 42  1  0
 21 22  2  0
 21 43  1  0
 22 23  1  0
 22 24  1  0
 23 44  1  0
 24 25  1  0
 25 45  1  0
 25 46  1  0
 26 27  1  0
 26 47  1  0
 26 48  1  0
 27 28  1  0
 27 49  1  0
 27 50  1  0
 28 51  1  0
 28 52  1  0
 29 53  1  0
M  CHG  1  13   1
M  END
>  <DOCK_score>  (1) 
-49.820011

>  <SMILES>  (1) 
Oc1cccc(CNC2=C[C@H]([NH2+]C3Cc4cccc(O)c4C3)CCC2)c1

$$$$
