CC(OCC1=C(C(C)[C@H](C)[NH2+]C2CC3(CCC3O)C2)CC1)c1nnc(-c2cccc(F)c2)s1
     RDKit          3D

 68 72  0  0  1  0  0  0  0  0999 V2000
  125.4661  132.9451  161.9780 C   0  0  0  0  0  0  0  0  0  0  0  0
  126.8849  133.5144  162.0416 C   0  0  1  0  0  0  0  0  0  0  0  0
  127.4955  133.4162  160.7533 O   0  0  0  0  0  0  0  0  0  0  0  0
  128.0088  132.1174  160.4509 C   0  0  0  0  0  0  0  0  0  0  0  0
  128.6267  132.1288  159.0764 C   0  0  0  0  0  0  0  0  0  0  0  0
  128.7641  133.0558  158.1778 C   0  0  0  0  0  0  0  0  0  0  0  0
  128.3584  134.5064  158.1314 C   0  0  2  0  0  0  0  0  0  0  0  0
  128.7897  135.1141  156.7950 C   0  0  0  0  0  0  0  0  0  0  0  0
  129.0345  135.2620  159.2771 C   0  0  2  0  0  0  0  0  0  0  0  0
  128.7273  134.8292  160.2291 H   0  0  0  0  0  0  0  0  0  0  0  0
  128.6227  136.7349  159.2299 C   0  0  0  0  0  0  0  0  0  0  0  0
  130.4933  135.1569  159.1394 N   0  0  0  0  0  0  0  0  0  0  0  0
  130.7649  134.1856  159.1705 H   0  0  0  0  0  0  0  0  0  0  0  0
  130.7777  135.5577  158.2582 H   0  0  0  0  0  0  0  0  0  0  0  0
  131.1426  135.8824  160.2396 C   0  0  2  0  0  0  0  0  0  0  0  0
  132.5825  135.4157  160.5199 C   0  0  0  0  0  0  0  0  0  0  0  0
  132.2419  135.5457  162.0065 C   0  0  2  0  0  0  0  0  0  0  0  0
  132.6939  136.7615  162.8162 C   0  0  0  0  0  0  0  0  0  0  0  0
  133.8234  135.8691  163.3621 C   0  0  0  0  0  0  0  0  0  0  0  0
  132.9195  134.6617  163.0542 C   0  0  1  0  0  0  0  0  0  0  0  0
  132.0621  134.2961  164.1372 O   0  0  0  0  0  0  0  0  0  0  0  0
  130.7723  135.3457  161.6342 C   0  0  0  0  0  0  0  0  0  0  0  0
  129.4653  132.1620  157.2009 C   0  0  0  0  0  0  0  0  0  0  0  0
  129.3042  131.0749  158.2549 C   0  0  0  0  0  0  0  0  0  0  0  0
  126.8274  134.9607  162.4613 C   0  0  0  0  0  0  0  0  0  0  0  0
  126.7275  135.9727  161.6614 N   0  0  0  0  0  0  0  0  0  0  0  0
  126.6878  137.1270  162.1711 N   0  0  0  0  0  0  0  0  0  0  0  0
  126.7621  137.1859  163.4738 C   0  0  0  0  0  0  0  0  0  0  0  0
  126.7413  138.4154  164.2957 C   0  0  0  0  0  0  0  0  0  0  0  0
  126.2230  139.6001  163.7710 C   0  0  0  0  0  0  0  0  0  0  0  0
  126.2058  140.7442  164.5416 C   0  0  0  0  0  0  0  0  0  0  0  0
  126.7010  140.7200  165.8330 C   0  0  0  0  0  0  0  0  0  0  0  0
  127.2167  139.5477  166.3612 C   0  0  0  0  0  0  0  0  0  0  0  0
  127.6979  139.5308  167.6235 F   0  0  0  0  0  0  0  0  0  0  0  0
  127.2342  138.3938  165.6003 C   0  0  0  0  0  0  0  0  0  0  0  0
  126.8913  135.5323  164.0747 S   0  0  0  0  0  0  0  0  0  0  0  0
  124.8797  133.5107  161.2540 H   0  0  0  0  0  0  0  0  0  0  0  0
  125.5077  131.8990  161.6743 H   0  0  0  0  0  0  0  0  0  0  0  0
  125.0003  133.0200  162.9607 H   0  0  0  0  0  0  0  0  0  0  0  0
  127.4712  132.9489  162.7657 H   0  0  0  0  0  0  0  0  0  0  0  0
  127.1971  131.3904  160.4783 H   0  0  0  0  0  0  0  0  0  0  0  0
  128.7652  131.8452  161.1870 H   0  0  0  0  0  0  0  0  0  0  0  0
  127.2760  134.5844  158.2335 H   0  0  0  0  0  0  0  0  0  0  0  0
  128.4962  136.1633  156.7614 H   0  0  0  0  0  0  0  0  0  0  0  0
  129.8720  135.0360  156.6929 H   0  0  0  0  0  0  0  0  0  0  0  0
  128.3080  134.5758  155.9787 H   0  0  0  0  0  0  0  0  0  0  0  0
  128.9300  137.1677  158.2779 H   0  0  0  0  0  0  0  0  0  0  0  0
  127.5402  136.8129  159.3319 H   0  0  0  0  0  0  0  0  0  0  0  0
  129.1044  137.2733  160.0462 H   0  0  0  0  0  0  0  0  0  0  0  0
  131.0446  136.9642  160.1487 H   0  0  0  0  0  0  0  0  0  0  0  0
  132.7796  134.3912  160.2042 H   0  0  0  0  0  0  0  0  0  0  0  0
  133.3439  136.1185  160.1815 H   0  0  0  0  0  0  0  0  0  0  0  0
  133.0484  137.5892  162.2018 H   0  0  0  0  0  0  0  0  0  0  0  0
  131.9758  137.0737  163.5744 H   0  0  0  0  0  0  0  0  0  0  0  0
  134.7318  135.8987  162.7604 H   0  0  0  0  0  0  0  0  0  0  0  0
  134.0160  136.0113  164.4256 H   0  0  0  0  0  0  0  0  0  0  0  0
  133.4542  133.8120  162.6297 H   0  0  0  0  0  0  0  0  0  0  0  0
  131.7159  135.0486  164.6361 H   0  0  0  0  0  0  0  0  0  0  0  0
  130.0895  135.9927  162.1849 H   0  0  0  0  0  0  0  0  0  0  0  0
  130.4598  134.3015  161.6323 H   0  0  0  0  0  0  0  0  0  0  0  0
  128.8994  131.9776  156.2878 H   0  0  0  0  0  0  0  0  0  0  0  0
  130.5016  132.4426  157.0125 H   0  0  0  0  0  0  0  0  0  0  0  0
  130.2472  130.7265  158.6761 H   0  0  0  0  0  0  0  0  0  0  0  0
  128.6455  130.2604  157.9533 H   0  0  0  0  0  0  0  0  0  0  0  0
  125.8362  139.6212  162.7628 H   0  0  0  0  0  0  0  0  0  0  0  0
  125.8043  141.6610  164.1357 H   0  0  0  0  0  0  0  0  0  0  0  0
  126.6851  141.6186  166.4321 H   0  0  0  0  0  0  0  0  0  0  0  0
  127.6323  137.4788  166.0135 H   0  0  0  0  0  0  0  0  0  0  0  0
  1  2  1  0
  1 37  1  0
  1 38  1  0
  1 39  1  0
  2  3  1  0
  2 25  1  0
  2 40  1  1
  3  4  1  0
  4  5  1  0
  4 41  1  0
  4 42  1  0
  5 24  1  0
  5  6  2  0
  6  7  1  0
  6 23  1  0
  7  8  1  0
  7  9  1  0
  7 43  1  1
  8 44  1  0
  8 45  1  0
  8 46  1  0
  9 10  1  1
  9 11  1  0
  9 12  1  0
 11 47  1  0
 11 48  1  0
 11 49  1  0
 12 13  1  0
 12 14  1  0
 12 15  1  0
 15 22  1  0
 15 16  1  0
 15 50  1  1
 16 51  1  0
 16 52  1  0
 17 16  1  6
 17 20  1  0
 17 18  1  0
 17 22  1  0
 18 19  1  0
 18 53  1  0
 18 54  1  0
 19 20  1  0
 19 55  1  0
 19 56  1  0
 20 21  1  0
 20 57  1  6
 21 58  1  0
 22 59  1  0
 22 60  1  0
 23 24  1  0
 23 61  1  0
 23 62  1  0
 24 63  1  0
 24 64  1  0
 25 36  1  0
 25 26  2  0
 26 27  1  0
 27 28  2  0
 28 29  1  0
 28 36  1  0
 29 35  1  0
 29 30  2  0
 30 31  1  0
 30 65  1  0
 31 32  2  0
 31 66  1  0
 32 33  1  0
 32 67  1  0
 33 34  1  0
 33 35  2  0
 35 68  1  0
M  CHG  1  12   1
M  END
>  <DOCK_score>  (1) 
-41.112007

>  <SMILES>  (1) 
CC(OCC1=C(C(C)[C@H](C)[NH2+]C2CC3(CCC3O)C2)CC1)c1nnc(-c2cccc(F)c2)s1

$$$$
