Nc1cccc2[nH]c(Nc3c(Cl)c(Cl)nc(Cl)c3NC3CC=CC3)[nH+]c12
     RDKit          3D

 42 45  0  0  1  0  0  0  0  0999 V2000
  131.6693  132.6683  155.1008 N   0  0  0  0  0  0  0  0  0  0  0  0
  131.0371  132.0589  156.1886 C   0  0  0  0  0  0  0  0  0  0  0  0
  131.0529  130.6818  156.3198 C   0  0  0  0  0  0  0  0  0  0  0  0
  130.4281  130.0723  157.3968 C   0  0  0  0  0  0  0  0  0  0  0  0
  129.7823  130.8299  158.3520 C   0  0  0  0  0  0  0  0  0  0  0  0
  129.7552  132.2133  158.2384 C   0  0  0  0  0  0  0  0  0  0  0  0
  129.2134  133.2285  159.0089 N   0  0  0  0  0  0  0  0  0  0  0  0
  128.7154  133.1210  159.8344 H   0  0  0  0  0  0  0  0  0  0  0  0
  129.5083  134.4096  158.3882 C   0  0  0  0  0  0  0  0  0  0  0  0
  129.1380  135.6600  158.8438 N   0  0  0  0  0  0  0  0  0  0  0  0
  128.4040  135.7836  160.0261 C   0  0  0  0  0  0  0  0  0  0  0  0
  127.1510  135.1882  160.1555 C   0  0  0  0  0  0  0  0  0  0  0  0
  126.4714  134.2765  158.8437 Cl  0  0  0  0  0  0  0  0  0  0  0  0
  126.4559  135.3332  161.3415 C   0  0  0  0  0  0  0  0  0  0  0  0
  124.8942  134.5950  161.5136 Cl  0  0  0  0  0  0  0  0  0  0  0  0
  126.9632  136.0249  162.3457 N   0  0  0  0  0  0  0  0  0  0  0  0
  128.1468  136.6056  162.2660 C   0  0  0  0  0  0  0  0  0  0  0  0
  128.7532  137.5069  163.6201 Cl  0  0  0  0  0  0  0  0  0  0  0  0
  128.9081  136.5083  161.1112 C   0  0  0  0  0  0  0  0  0  0  0  0
  130.1631  137.1269  161.0322 N   0  0  0  0  0  0  0  0  0  0  0  0
  131.2218  136.1396  160.7825 C   0  0  0  0  0  0  0  0  0  0  0  0
  131.4136  135.2106  162.0037 C   0  0  0  0  0  0  0  0  0  0  0  0
  132.9049  134.9731  162.0743 C   0  0  0  0  0  0  0  0  0  0  0  0
  133.5553  135.8510  161.3605 C   0  0  0  0  0  0  0  0  0  0  0  0
  132.6071  136.8213  160.6952 C   0  0  0  0  0  0  0  0  0  0  0  0
  130.1988  134.1792  157.3002 N   0  0  0  0  0  0  0  0  0  0  0  0
  130.5282  134.8596  156.6925 H   0  0  0  0  0  0  0  0  0  0  0  0
  130.3843  132.8404  157.1527 C   0  0  0  0  0  0  0  0  0  0  0  0
  131.6569  133.6341  155.0114 H   0  0  0  0  0  0  0  0  0  0  0  0
  132.1202  132.1253  154.4354 H   0  0  0  0  0  0  0  0  0  0  0  0
  131.5554  130.0778  155.5788 H   0  0  0  0  0  0  0  0  0  0  0  0
  130.4466  128.9964  157.4886 H   0  0  0  0  0  0  0  0  0  0  0  0
  129.2981  130.3470  159.1879 H   0  0  0  0  0  0  0  0  0  0  0  0
  129.3878  136.4523  158.3429 H   0  0  0  0  0  0  0  0  0  0  0  0
  130.3561  137.6610  161.8663 H   0  0  0  0  0  0  0  0  0  0  0  0
  131.0118  135.5632  159.8816 H   0  0  0  0  0  0  0  0  0  0  0  0
  131.0638  135.7006  162.9124 H   0  0  0  0  0  0  0  0  0  0  0  0
  130.8854  134.2694  161.8515 H   0  0  0  0  0  0  0  0  0  0  0  0
  133.3708  134.1803  162.6410 H   0  0  0  0  0  0  0  0  0  0  0  0
  134.6301  135.8801  161.2585 H   0  0  0  0  0  0  0  0  0  0  0  0
  132.8897  136.9747  159.6536 H   0  0  0  0  0  0  0  0  0  0  0  0
  132.5976  137.7706  161.2306 H   0  0  0  0  0  0  0  0  0  0  0  0
  1  2  1  0
  1 29  1  0
  1 30  1  0
  2 28  2  0
  2  3  1  0
  3  4  2  0
  3 31  1  0
  4  5  1  0
  4 32  1  0
  5  6  2  0
  5 33  1  0
  6 28  1  0
  6  7  1  0
  7  8  1  0
  7  9  1  0
  9 10  1  0
  9 26  2  0
 10 11  1  0
 10 34  1  0
 11 19  1  0
 11 12  2  0
 12 13  1  0
 12 14  1  0
 14 15  1  0
 14 16  2  0
 16 17  1  0
 17 18  1  0
 17 19  2  0
 19 20  1  0
 20 21  1  0
 20 35  1  0
 21 25  1  0
 21 22  1  0
 21 36  1  0
 22 23  1  0
 22 37  1  0
 22 38  1  0
 23 24  2  0
 23 39  1  0
 24 25  1  0
 24 40  1  0
 25 41  1  0
 25 42  1  0
 26 27  1  0
 26 28  1  0
M  CHG  1  26   1
M  END
>  <DOCK_score>  (1) 
-46.901539

>  <SMILES>  (1) 
Nc1cccc2[nH]c(Nc3c(Cl)c(Cl)nc(Cl)c3NC3CC=CC3)[nH+]c12

$$$$
