OCC[NH2+]CC1=C(Cc2cnn(-c3ccc4occc4c3)c2)CNNC1
     RDKit          3D

 50 53  0  0  0  0  0  0  0  0999 V2000
  133.4730  135.0691  161.8522 O   0  0  0  0  0  0  0  0  0  0  0  0
  133.5764  136.4382  161.4564 C   0  0  0  0  0  0  0  0  0  0  0  0
  132.5858  136.7181  160.3244 C   0  0  0  0  0  0  0  0  0  0  0  0
  131.2198  136.4450  160.7905 N   0  0  0  0  0  0  0  0  0  0  0  0
  131.0078  137.0397  161.5776 H   0  0  0  0  0  0  0  0  0  0  0  0
  131.1467  135.4783  161.0700 H   0  0  0  0  0  0  0  0  0  0  0  0
  130.2687  136.7137  159.7037 C   0  0  0  0  0  0  0  0  0  0  0  0
  128.8672  136.4336  160.1818 C   0  0  0  0  0  0  0  0  0  0  0  0
  127.9819  136.0338  159.3181 C   0  0  0  0  0  0  0  0  0  0  0  0
  128.4000  135.8624  157.8805 C   0  0  0  0  0  0  0  0  0  0  0  0
  128.8922  134.4543  157.6650 C   0  0  0  0  0  0  0  0  0  0  0  0
  128.9586  133.4483  158.6349 C   0  0  0  0  0  0  0  0  0  0  0  0
  129.4334  132.3666  158.0712 N   0  0  0  0  0  0  0  0  0  0  0  0
  129.6945  132.6528  156.7249 N   0  0  0  0  0  0  0  0  0  0  0  0
  130.2178  131.7601  155.7774 C   0  0  0  0  0  0  0  0  0  0  0  0
  131.0839  130.7466  156.1812 C   0  0  0  0  0  0  0  0  0  0  0  0
  131.6015  129.8591  155.2640 C   0  0  0  0  0  0  0  0  0  0  0  0
  131.2704  129.9758  153.9195 C   0  0  0  0  0  0  0  0  0  0  0  0
  131.6148  129.2780  152.8175 O   0  0  0  0  0  0  0  0  0  0  0  0
  131.0236  129.7877  151.7231 C   0  0  0  0  0  0  0  0  0  0  0  0
  130.2655  130.8412  152.0560 C   0  0  0  0  0  0  0  0  0  0  0  0
  130.4016  131.0006  153.5090 C   0  0  0  0  0  0  0  0  0  0  0  0
  129.8771  131.8918  154.4433 C   0  0  0  0  0  0  0  0  0  0  0  0
  129.3535  133.9417  156.5006 C   0  0  0  0  0  0  0  0  0  0  0  0
  126.5563  135.7413  159.6943 C   0  0  0  0  0  0  0  0  0  0  0  0
  126.4498  135.5752  161.1520 N   0  0  0  0  0  0  0  0  0  0  0  0
  127.0945  136.6938  161.8281 N   0  0  0  0  0  0  0  0  0  0  0  0
  128.5500  136.6274  161.6382 C   0  0  0  0  0  0  0  0  0  0  0  0
  133.6639  134.4392  161.1437 H   0  0  0  0  0  0  0  0  0  0  0  0
  134.5900  136.6408  161.1106 H   0  0  0  0  0  0  0  0  0  0  0  0
  133.3474  137.0806  162.3067 H   0  0  0  0  0  0  0  0  0  0  0  0
  132.8149  136.0757  159.4742 H   0  0  0  0  0  0  0  0  0  0  0  0
  132.6648  137.7625  160.0224 H   0  0  0  0  0  0  0  0  0  0  0  0
  130.4978  136.0715  158.8533 H   0  0  0  0  0  0  0  0  0  0  0  0
  130.3475  137.7581  159.4017 H   0  0  0  0  0  0  0  0  0  0  0  0
  129.1993  136.5662  157.6483 H   0  0  0  0  0  0  0  0  0  0  0  0
  127.5473  136.0530  157.2288 H   0  0  0  0  0  0  0  0  0  0  0  0
  128.6652  133.5463  159.6697 H   0  0  0  0  0  0  0  0  0  0  0  0
  131.3486  130.6531  157.2241 H   0  0  0  0  0  0  0  0  0  0  0  0
  132.2685  129.0744  155.5894 H   0  0  0  0  0  0  0  0  0  0  0  0
  131.1424  129.4038  150.7207 H   0  0  0  0  0  0  0  0  0  0  0  0
  129.6733  131.4507  151.3893 H   0  0  0  0  0  0  0  0  0  0  0  0
  129.2096  132.6799  154.1279 H   0  0  0  0  0  0  0  0  0  0  0  0
  129.4351  134.4678  155.5609 H   0  0  0  0  0  0  0  0  0  0  0  0
  125.9204  136.5662  159.3727 H   0  0  0  0  0  0  0  0  0  0  0  0
  126.2331  134.8238  159.2027 H   0  0  0  0  0  0  0  0  0  0  0  0
  125.4854  135.4886  161.4357 H   0  0  0  0  0  0  0  0  0  0  0  0
  126.8581  136.7084  162.8089 H   0  0  0  0  0  0  0  0  0  0  0  0
  128.9521  135.7915  162.2106 H   0  0  0  0  0  0  0  0  0  0  0  0
  129.0035  137.5552  161.9872 H   0  0  0  0  0  0  0  0  0  0  0  0
  1  2  1  0
  1 29  1  0
  2  3  1  0
  2 30  1  0
  2 31  1  0
  3  4  1  0
  3 32  1  0
  3 33  1  0
  4  5  1  0
  4  6  1  0
  4  7  1  0
  7  8  1  0
  7 34  1  0
  7 35  1  0
  8 28  1  0
  8  9  2  0
  9 10  1  0
  9 25  1  0
 10 11  1  0
 10 36  1  0
 10 37  1  0
 11 24  2  0
 11 12  1  0
 12 13  2  0
 12 38  1  0
 13 14  1  0
 14 15  1  0
 14 24  1  0
 15 23  1  0
 15 16  2  0
 16 17  1  0
 16 39  1  0
 17 18  2  0
 17 40  1  0
 18 22  1  0
 18 19  1  0
 19 20  1  0
 20 21  2  0
 20 41  1  0
 21 22  1  0
 21 42  1  0
 22 23  2  0
 23 43  1  0
 24 44  1  0
 25 26  1  0
 25 45  1  0
 25 46  1  0
 26 27  1  0
 26 47  1  0
 27 28  1  0
 27 48  1  0
 28 49  1  0
 28 50  1  0
M  CHG  1   4   1
M  END
>  <DOCK_score>  (1) 
-45.070171

>  <SMILES>  (1) 
OCC[NH2+]CC1=C(Cc2cnn(-c3ccc4occc4c3)c2)CNNC1

$$$$
