C[C@](CNc1ccc(C2CC(=O)C2)s1)([NH2+]Cc1cccc2c1NC(=O)CO2)c1ccccc1
     RDKit          3D

 61 65  0  0  1  0  0  0  0  0999 V2000
  129.1477  136.9643  159.0798 C   0  0  0  0  0  0  0  0  0  0  0  0
  129.6500  135.7379  159.8444 C   0  0  2  0  0  0  0  0  0  0  0  0
  130.6913  136.1724  160.8777 C   0  0  0  0  0  0  0  0  0  0  0  0
  131.8162  136.8174  160.1960 N   0  0  0  0  0  0  0  0  0  0  0  0
  132.8967  137.3007  160.9362 C   0  0  0  0  0  0  0  0  0  0  0  0
  133.9747  137.9115  160.4231 C   0  0  0  0  0  0  0  0  0  0  0  0
  134.9183  138.3046  161.3590 C   0  0  0  0  0  0  0  0  0  0  0  0
  134.6113  138.0164  162.6228 C   0  0  0  0  0  0  0  0  0  0  0  0
  135.4694  138.3395  163.8188 C   0  0  0  0  0  0  0  0  0  0  0  0
  136.9170  137.8336  163.6948 C   0  0  0  0  0  0  0  0  0  0  0  0
  136.8139  137.4409  165.1551 C   0  0  0  0  0  0  0  0  0  0  0  0
  137.5915  137.2775  166.0644 O   0  0  0  0  0  0  0  0  0  0  0  0
  135.3115  137.3421  164.9795 C   0  0  0  0  0  0  0  0  0  0  0  0
  133.0505  137.2088  162.6859 S   0  0  0  0  0  0  0  0  0  0  0  0
  130.2605  134.7900  158.9028 N   0  0  0  0  0  0  0  0  0  0  0  0
  130.8688  134.1612  159.4053 H   0  0  0  0  0  0  0  0  0  0  0  0
  130.7959  135.2973  158.2142 H   0  0  0  0  0  0  0  0  0  0  0  0
  129.2057  134.0186  158.2315 C   0  0  0  0  0  0  0  0  0  0  0  0
  129.8320  133.0461  157.2655 C   0  0  0  0  0  0  0  0  0  0  0  0
  130.0726  133.4258  155.9573 C   0  0  0  0  0  0  0  0  0  0  0  0
  130.6526  132.5376  155.0709 C   0  0  0  0  0  0  0  0  0  0  0  0
  130.9968  131.2633  155.4857 C   0  0  0  0  0  0  0  0  0  0  0  0
  130.7593  130.8763  156.7925 C   0  0  0  0  0  0  0  0  0  0  0  0
  130.1736  131.7721  157.6864 C   0  0  0  0  0  0  0  0  0  0  0  0
  129.9356  131.3659  159.0071 N   0  0  0  0  0  0  0  0  0  0  0  0
  130.5515  130.2570  159.4717 C   0  0  0  0  0  0  0  0  0  0  0  0
  130.3375  129.8695  160.6011 O   0  0  0  0  0  0  0  0  0  0  0  0
  131.5061  129.5032  158.5812 C   0  0  0  0  0  0  0  0  0  0  0  0
  131.0925  129.6285  157.2181 O   0  0  0  0  0  0  0  0  0  0  0  0
  128.4929  135.0744  160.5457 C   0  0  0  0  0  0  0  0  0  0  0  0
  127.2202  135.6015  160.4298 C   0  0  0  0  0  0  0  0  0  0  0  0
  126.1582  134.9907  161.0700 C   0  0  0  0  0  0  0  0  0  0  0  0
  126.3701  133.8575  161.8327 C   0  0  0  0  0  0  0  0  0  0  0  0
  127.6436  133.3334  161.9529 C   0  0  0  0  0  0  0  0  0  0  0  0
  128.7050  133.9420  161.3095 C   0  0  0  0  0  0  0  0  0  0  0  0
  128.4058  136.6547  158.3436 H   0  0  0  0  0  0  0  0  0  0  0  0
  128.6947  137.6676  159.7786 H   0  0  0  0  0  0  0  0  0  0  0  0
  129.9846  137.4442  158.5725 H   0  0  0  0  0  0  0  0  0  0  0  0
  130.2383  136.8756  161.5764 H   0  0  0  0  0  0  0  0  0  0  0  0
  131.0492  135.2987  161.4224 H   0  0  0  0  0  0  0  0  0  0  0  0
  131.8103  136.9087  159.2303 H   0  0  0  0  0  0  0  0  0  0  0  0
  134.0979  138.0833  159.3640 H   0  0  0  0  0  0  0  0  0  0  0  0
  135.8340  138.8068  161.0840 H   0  0  0  0  0  0  0  0  0  0  0  0
  135.3938  139.3827  164.1253 H   0  0  0  0  0  0  0  0  0  0  0  0
  137.0276  136.9848  163.0200 H   0  0  0  0  0  0  0  0  0  0  0  0
  137.6421  138.6251  163.5047 H   0  0  0  0  0  0  0  0  0  0  0  0
  134.7454  137.7379  165.8226 H   0  0  0  0  0  0  0  0  0  0  0  0
  134.9702  136.3558  164.6653 H   0  0  0  0  0  0  0  0  0  0  0  0
  128.5486  134.6978  157.6885 H   0  0  0  0  0  0  0  0  0  0  0  0
  128.6273  133.4704  158.9751 H   0  0  0  0  0  0  0  0  0  0  0  0
  129.8068  134.4193  155.6274 H   0  0  0  0  0  0  0  0  0  0  0  0
  130.8383  132.8397  154.0507 H   0  0  0  0  0  0  0  0  0  0  0  0
  131.4497  130.5719  154.7905 H   0  0  0  0  0  0  0  0  0  0  0  0
  129.3385  131.8738  159.5786 H   0  0  0  0  0  0  0  0  0  0  0  0
  131.5110  128.4503  158.8634 H   0  0  0  0  0  0  0  0  0  0  0  0
  132.5092  129.9142  158.6951 H   0  0  0  0  0  0  0  0  0  0  0  0
  127.0551  136.4889  159.8367 H   0  0  0  0  0  0  0  0  0  0  0  0
  125.1633  135.4003  160.9765 H   0  0  0  0  0  0  0  0  0  0  0  0
  125.5408  133.3818  162.3350 H   0  0  0  0  0  0  0  0  0  0  0  0
  127.8092  132.4482  162.5491 H   0  0  0  0  0  0  0  0  0  0  0  0
  129.7000  133.5324  161.4034 H   0  0  0  0  0  0  0  0  0  0  0  0
  1 36  1  0
  1 37  1  0
  1 38  1  0
  2  1  1  6
  2  3  1  0
  2 15  1  0
  2 30  1  0
  3  4  1  0
  3 39  1  0
  3 40  1  0
  4  5  1  0
  4 41  1  0
  5 14  1  0
  5  6  2  0
  6  7  1  0
  6 42  1  0
  7  8  2  0
  7 43  1  0
  8  9  1  0
  8 14  1  0
  9 13  1  0
  9 10  1  0
  9 44  1  0
 10 11  1  0
 10 45  1  0
 10 46  1  0
 11 12  2  0
 11 13  1  0
 13 47  1  0
 13 48  1  0
 15 16  1  0
 15 17  1  0
 15 18  1  0
 18 19  1  0
 18 49  1  0
 18 50  1  0
 19 24  1  0
 19 20  2  0
 20 21  1  0
 20 51  1  0
 21 22  2  0
 21 52  1  0
 22 23  1  0
 22 53  1  0
 23 29  1  0
 23 24  2  0
 24 25  1  0
 25 26  1  0
 25 54  1  0
 26 27  2  0
 26 28  1  0
 28 29  1  0
 28 55  1  0
 28 56  1  0
 30 35  1  0
 30 31  2  0
 31 32  1  0
 31 57  1  0
 32 33  2  0
 32 58  1  0
 33 34  1  0
 33 59  1  0
 34 35  2  0
 34 60  1  0
 35 61  1  0
M  CHG  1  15   1
M  END
>  <DOCK_score>  (1) 
-57.121971

>  <SMILES>  (1) 
C[C@](CNc1ccc(C2CC(=O)C2)s1)([NH2+]Cc1cccc2c1NC(=O)CO2)c1ccccc1

$$$$
