CCc1cccc(Nc2ccc(-c3n[nH]cc3C[NH2+]CCO)o2)c1
     RDKit          3D

 47 49  0  0  0  0  0  0  0  0999 V2000
  125.9746  140.3256  165.7840 C   0  0  0  0  0  0  0  0  0  0  0  0
  127.0105  140.3481  164.6583 C   0  0  0  0  0  0  0  0  0  0  0  0
  127.4081  138.9362  164.3132 C   0  0  0  0  0  0  0  0  0  0  0  0
  128.4710  138.3386  164.9662 C   0  0  0  0  0  0  0  0  0  0  0  0
  128.8429  137.0452  164.6487 C   0  0  0  0  0  0  0  0  0  0  0  0
  128.1471  136.3417  163.6851 C   0  0  0  0  0  0  0  0  0  0  0  0
  127.0758  136.9369  163.0309 C   0  0  0  0  0  0  0  0  0  0  0  0
  126.3701  136.2286  162.0555 N   0  0  0  0  0  0  0  0  0  0  0  0
  127.0173  135.2627  161.2932 C   0  0  0  0  0  0  0  0  0  0  0  0
  126.4435  134.1505  160.7697 C   0  0  0  0  0  0  0  0  0  0  0  0
  127.4518  133.4572  160.0723 C   0  0  0  0  0  0  0  0  0  0  0  0
  128.5954  134.1783  160.2132 C   0  0  0  0  0  0  0  0  0  0  0  0
  129.9155  133.8263  159.6505 C   0  0  0  0  0  0  0  0  0  0  0  0
  130.1897  132.7631  158.9204 N   0  0  0  0  0  0  0  0  0  0  0  0
  131.5502  132.8024  158.5895 N   0  0  0  0  0  0  0  0  0  0  0  0
  132.0254  132.1451  158.0576 H   0  0  0  0  0  0  0  0  0  0  0  0
  132.0858  133.9143  159.1384 C   0  0  0  0  0  0  0  0  0  0  0  0
  131.1050  134.5712  159.7939 C   0  0  0  0  0  0  0  0  0  0  0  0
  131.2552  135.8674  160.5477 C   0  0  0  0  0  0  0  0  0  0  0  0
  131.0012  136.9941  159.6400 N   0  0  0  0  0  0  0  0  0  0  0  0
  131.6633  136.9689  158.8791 H   0  0  0  0  0  0  0  0  0  0  0  0
  130.0640  136.9253  159.2727 H   0  0  0  0  0  0  0  0  0  0  0  0
  131.1475  138.2576  160.3749 C   0  0  0  0  0  0  0  0  0  0  0  0
  130.8830  139.4311  159.4294 C   0  0  0  0  0  0  0  0  0  0  0  0
  131.8209  139.3954  158.3518 O   0  0  0  0  0  0  0  0  0  0  0  0
  128.3183  135.2707  160.9556 O   0  0  0  0  0  0  0  0  0  0  0  0
  126.7082  138.2388  163.3487 C   0  0  0  0  0  0  0  0  0  0  0  0
  125.0955  139.7701  165.4577 H   0  0  0  0  0  0  0  0  0  0  0  0
  126.4033  139.8440  166.6627 H   0  0  0  0  0  0  0  0  0  0  0  0
  125.6870  141.3470  166.0336 H   0  0  0  0  0  0  0  0  0  0  0  0
  127.8897  140.9038  164.9846 H   0  0  0  0  0  0  0  0  0  0  0  0
  126.5818  140.8300  163.7794 H   0  0  0  0  0  0  0  0  0  0  0  0
  129.0142  138.8850  165.7230 H   0  0  0  0  0  0  0  0  0  0  0  0
  129.6756  136.5830  165.1580 H   0  0  0  0  0  0  0  0  0  0  0  0
  128.4353  135.3300  163.4407 H   0  0  0  0  0  0  0  0  0  0  0  0
  125.4286  136.4106  161.9100 H   0  0  0  0  0  0  0  0  0  0  0  0
  125.4094  133.8544  160.8670 H   0  0  0  0  0  0  0  0  0  0  0  0
  127.3390  132.5284  159.5327 H   0  0  0  0  0  0  0  0  0  0  0  0
  133.1171  134.2259  159.0621 H   0  0  0  0  0  0  0  0  0  0  0  0
  130.5399  135.8946  161.3698 H   0  0  0  0  0  0  0  0  0  0  0  0
  132.2677  135.9417  160.9447 H   0  0  0  0  0  0  0  0  0  0  0  0
  130.4322  138.2848  161.1969 H   0  0  0  0  0  0  0  0  0  0  0  0
  132.1601  138.3319  160.7718 H   0  0  0  0  0  0  0  0  0  0  0  0
  129.8706  139.3568  159.0325 H   0  0  0  0  0  0  0  0  0  0  0  0
  130.9916  140.3686  159.9746 H   0  0  0  0  0  0  0  0  0  0  0  0
  131.7807  138.5875  157.8220 H   0  0  0  0  0  0  0  0  0  0  0  0
  125.8760  138.7047  162.8419 H   0  0  0  0  0  0  0  0  0  0  0  0
  1  2  1  0
  1 28  1  0
  1 29  1  0
  1 30  1  0
  2  3  1  0
  2 31  1  0
  2 32  1  0
  3 27  2  0
  3  4  1  0
  4  5  2  0
  4 33  1  0
  5  6  1  0
  5 34  1  0
  6  7  2  0
  6 35  1  0
  7  8  1  0
  7 27  1  0
  8  9  1  0
  8 36  1  0
  9 26  1  0
  9 10  2  0
 10 11  1  0
 10 37  1  0
 11 12  2  0
 11 38  1  0
 12 13  1  0
 12 26  1  0
 13 18  1  0
 13 14  2  0
 14 15  1  0
 15 16  1  0
 15 17  1  0
 17 18  2  0
 17 39  1  0
 18 19  1  0
 19 20  1  0
 19 40  1  0
 19 41  1  0
 20 21  1  0
 20 22  1  0
 20 23  1  0
 23 24  1  0
 23 42  1  0
 23 43  1  0
 24 25  1  0
 24 44  1  0
 24 45  1  0
 25 46  1  0
 27 47  1  0
M  CHG  1  20   1
M  END
>  <DOCK_score>  (1) 
-44.928692

>  <SMILES>  (1) 
CCc1cccc(Nc2ccc(-c3n[nH]cc3C[NH2+]CCO)o2)c1

$$$$
