Cc1cccc(N2CC[NH+]([C@@H](C3=CCCC3)c3ccccc3C(=O)NCC3CC(F)(F)C3)CC2)c1C
     RDKit          3D

 74 78  0  0  1  0  0  0  0  0999 V2000
  135.9140  141.2628  162.6868 C   0  0  0  0  0  0  0  0  0  0  0  0
  135.3811  140.5159  161.4912 C   0  0  0  0  0  0  0  0  0  0  0  0
  135.8370  140.8272  160.2230 C   0  0  0  0  0  0  0  0  0  0  0  0
  135.3504  140.1448  159.1234 C   0  0  0  0  0  0  0  0  0  0  0  0
  134.4073  139.1491  159.2881 C   0  0  0  0  0  0  0  0  0  0  0  0
  133.9474  138.8341  160.5602 C   0  0  0  0  0  0  0  0  0  0  0  0
  132.9934  137.8282  160.7304 N   0  0  0  0  0  0  0  0  0  0  0  0
  131.7276  138.1865  160.0752 C   0  0  0  0  0  0  0  0  0  0  0  0
  130.6936  137.0888  160.3351 C   0  0  0  0  0  0  0  0  0  0  0  0
  131.1927  135.8114  159.8089 N   0  0  0  0  0  0  0  0  0  0  0  0
  131.3627  135.8994  158.8182 H   0  0  0  0  0  0  0  0  0  0  0  0
  130.1920  134.7615  160.0424 C   0  0  1  0  0  0  0  0  0  0  0  0
  130.0079  134.6667  161.1125 H   0  0  0  0  0  0  0  0  0  0  0  0
  128.9084  135.1263  159.3421 C   0  0  0  0  0  0  0  0  0  0  0  0
  128.8401  135.8334  158.2472 C   0  0  0  0  0  0  0  0  0  0  0  0
  127.4063  136.0177  157.8071 C   0  0  0  0  0  0  0  0  0  0  0  0
  126.5634  135.6544  159.0516 C   0  0  0  0  0  0  0  0  0  0  0  0
  127.5321  134.7161  159.8116 C   0  0  0  0  0  0  0  0  0  0  0  0
  130.7038  133.4508  159.5026 C   0  0  0  0  0  0  0  0  0  0  0  0
  131.0092  133.3269  158.1628 C   0  0  0  0  0  0  0  0  0  0  0  0
  131.4791  132.1244  157.6657 C   0  0  0  0  0  0  0  0  0  0  0  0
  131.6462  131.0387  158.5074 C   0  0  0  0  0  0  0  0  0  0  0  0
  131.3504  131.1512  159.8499 C   0  0  0  0  0  0  0  0  0  0  0  0
  130.8704  132.3600  160.3569 C   0  0  0  0  0  0  0  0  0  0  0  0
  130.5456  132.4859  161.7938 C   0  0  0  0  0  0  0  0  0  0  0  0
  131.4075  132.3000  162.6304 O   0  0  0  0  0  0  0  0  0  0  0  0
  129.2949  132.8122  162.1758 N   0  0  0  0  0  0  0  0  0  0  0  0
  128.9744  132.9426  163.5993 C   0  0  0  0  0  0  0  0  0  0  0  0
  129.2126  134.3866  164.0454 C   0  0  0  0  0  0  0  0  0  0  0  0
  128.8486  134.6447  165.5170 C   0  0  0  0  0  0  0  0  0  0  0  0
  128.2669  135.9926  165.0533 C   0  0  0  0  0  0  0  0  0  0  0  0
  129.2014  137.0337  165.0525 F   0  0  0  0  0  0  0  0  0  0  0  0
  127.0693  136.3361  165.6898 F   0  0  0  0  0  0  0  0  0  0  0  0
  128.0671  135.3431  163.6737 C   0  0  0  0  0  0  0  0  0  0  0  0
  132.4442  135.4548  160.4901 C   0  0  0  0  0  0  0  0  0  0  0  0
  133.4928  136.5390  160.2316 C   0  0  0  0  0  0  0  0  0  0  0  0
  134.4342  139.5257  161.6624 C   0  0  0  0  0  0  0  0  0  0  0  0
  133.9335  139.1914  163.0440 C   0  0  0  0  0  0  0  0  0  0  0  0
  135.2916  142.1376  162.8757 H   0  0  0  0  0  0  0  0  0  0  0  0
  135.8979  140.6100  163.5596 H   0  0  0  0  0  0  0  0  0  0  0  0
  136.9378  141.5808  162.4898 H   0  0  0  0  0  0  0  0  0  0  0  0
  136.5743  141.6052  160.0915 H   0  0  0  0  0  0  0  0  0  0  0  0
  135.7085  140.3903  158.1344 H   0  0  0  0  0  0  0  0  0  0  0  0
  134.0277  138.6166  158.4286 H   0  0  0  0  0  0  0  0  0  0  0  0
  131.8892  138.2872  159.0020 H   0  0  0  0  0  0  0  0  0  0  0  0
  131.3637  139.1316  160.4784 H   0  0  0  0  0  0  0  0  0  0  0  0
  129.7581  137.3457  159.8381 H   0  0  0  0  0  0  0  0  0  0  0  0
  130.5221  136.9977  161.4076 H   0  0  0  0  0  0  0  0  0  0  0  0
  129.6959  136.2340  157.7241 H   0  0  0  0  0  0  0  0  0  0  0  0
  127.2283  137.0533  157.5171 H   0  0  0  0  0  0  0  0  0  0  0  0
  127.1733  135.3458  156.9812 H   0  0  0  0  0  0  0  0  0  0  0  0
  126.3310  136.5423  159.6395 H   0  0  0  0  0  0  0  0  0  0  0  0
  125.6535  135.1260  158.7673 H   0  0  0  0  0  0  0  0  0  0  0  0
  127.3373  133.6752  159.5534 H   0  0  0  0  0  0  0  0  0  0  0  0
  127.4378  134.8655  160.8873 H   0  0  0  0  0  0  0  0  0  0  0  0
  130.8807  134.1703  157.5005 H   0  0  0  0  0  0  0  0  0  0  0  0
  131.7163  132.0325  156.6162 H   0  0  0  0  0  0  0  0  0  0  0  0
  132.0130  130.1027  158.1129 H   0  0  0  0  0  0  0  0  0  0  0  0
  131.4857  130.3044  160.5067 H   0  0  0  0  0  0  0  0  0  0  0  0
  128.6070  132.9605  161.5081 H   0  0  0  0  0  0  0  0  0  0  0  0
  127.9291  132.6797  163.7619 H   0  0  0  0  0  0  0  0  0  0  0  0
  129.6115  132.2738  164.1781 H   0  0  0  0  0  0  0  0  0  0  0  0
  130.1989  134.7581  163.7679 H   0  0  0  0  0  0  0  0  0  0  0  0
  128.0988  133.9570  165.9085 H   0  0  0  0  0  0  0  0  0  0  0  0
  129.7155  134.7439  166.1702 H   0  0  0  0  0  0  0  0  0  0  0  0
  128.3040  136.0052  162.8410 H   0  0  0  0  0  0  0  0  0  0  0  0
  127.1035  134.8465  163.5589 H   0  0  0  0  0  0  0  0  0  0  0  0
  132.2637  135.3722  161.5619 H   0  0  0  0  0  0  0  0  0  0  0  0
  132.8065  134.5004  160.1081 H   0  0  0  0  0  0  0  0  0  0  0  0
  133.6835  136.6124  159.1609 H   0  0  0  0  0  0  0  0  0  0  0  0
  134.4168  136.2820  160.7492 H   0  0  0  0  0  0  0  0  0  0  0  0
  134.5635  138.4166  163.4811 H   0  0  0  0  0  0  0  0  0  0  0  0
  133.9687  140.0838  163.6689 H   0  0  0  0  0  0  0  0  0  0  0  0
  132.9064  138.8322  162.9812 H   0  0  0  0  0  0  0  0  0  0  0  0
  1  2  1  0
  1 39  1  0
  1 40  1  0
  1 41  1  0
  2 37  2  0
  2  3  1  0
  3  4  2  0
  3 42  1  0
  4  5  1  0
  4 43  1  0
  5  6  2  0
  5 44  1  0
  6  7  1  0
  6 37  1  0
  7 36  1  0
  7  8  1  0
  8  9  1  0
  8 45  1  0
  8 46  1  0
  9 10  1  0
  9 47  1  0
  9 48  1  0
 10 11  1  0
 10 12  1  0
 10 35  1  0
 12 13  1  1
 12 14  1  0
 12 19  1  0
 14 18  1  0
 14 15  2  0
 15 16  1  0
 15 49  1  0
 16 17  1  0
 16 50  1  0
 16 51  1  0
 17 18  1  0
 17 52  1  0
 17 53  1  0
 18 54  1  0
 18 55  1  0
 19 24  1  0
 19 20  2  0
 20 21  1  0
 20 56  1  0
 21 22  2  0
 21 57  1  0
 22 23  1  0
 22 58  1  0
 23 24  2  0
 23 59  1  0
 24 25  1  0
 25 26  2  0
 25 27  1  0
 27 28  1  0
 27 60  1  0
 28 29  1  0
 28 61  1  0
 28 62  1  0
 29 34  1  0
 29 30  1  0
 29 63  1  0
 30 31  1  0
 30 64  1  0
 30 65  1  0
 31 32  1  0
 31 33  1  0
 31 34  1  0
 34 66  1  0
 34 67  1  0
 35 36  1  0
 35 68  1  0
 35 69  1  0
 36 70  1  0
 36 71  1  0
 37 38  1  0
 38 72  1  0
 38 73  1  0
 38 74  1  0
M  CHG  1  10   1
M  END
>  <DOCK_score>  (1) 
-57.139637

>  <SMILES>  (1) 
Cc1cccc(N2CC[NH+]([C@@H](C3=CCCC3)c3ccccc3C(=O)NCC3CC(F)(F)C3)CC2)c1C

$$$$
