CCC1=C[C@@](O)(c2ccccc2Nc2ccccc2Nc2[nH]c(C)c(C)[nH+]2)CC(=O)O1
     RDKit          3D

 58 61  0  0  1  0  0  0  0  0999 V2000
  135.3672  140.7751  162.9353 C   0  0  0  0  0  0  0  0  0  0  0  0
  134.8186  140.9895  161.5231 C   0  0  0  0  0  0  0  0  0  0  0  0
  133.4173  140.4413  161.4399 C   0  0  0  0  0  0  0  0  0  0  0  0
  133.2627  139.1939  161.0879 C   0  0  0  0  0  0  0  0  0  0  0  0
  131.9165  138.5376  160.9522 C   0  0  1  0  0  0  0  0  0  0  0  0
  131.5528  138.4769  159.5715 O   0  0  0  0  0  0  0  0  0  0  0  0
  131.9785  137.1418  161.5173 C   0  0  0  0  0  0  0  0  0  0  0  0
  132.8485  136.8521  162.5502 C   0  0  0  0  0  0  0  0  0  0  0  0
  132.9103  135.5705  163.0653 C   0  0  0  0  0  0  0  0  0  0  0  0
  132.0975  134.5757  162.5526 C   0  0  0  0  0  0  0  0  0  0  0  0
  131.2212  134.8596  161.5240 C   0  0  0  0  0  0  0  0  0  0  0  0
  131.1566  136.1465  161.0038 C   0  0  0  0  0  0  0  0  0  0  0  0
  130.2714  136.4373  159.9632 N   0  0  0  0  0  0  0  0  0  0  0  0
  128.8951  136.2587  160.1446 C   0  0  0  0  0  0  0  0  0  0  0  0
  128.3336  136.4131  161.4035 C   0  0  0  0  0  0  0  0  0  0  0  0
  126.9750  136.2296  161.5815 C   0  0  0  0  0  0  0  0  0  0  0  0
  126.1710  135.8986  160.5063 C   0  0  0  0  0  0  0  0  0  0  0  0
  126.7212  135.7487  159.2469 C   0  0  0  0  0  0  0  0  0  0  0  0
  128.0832  135.9300  159.0590 C   0  0  0  0  0  0  0  0  0  0  0  0
  128.6428  135.7778  157.7841 N   0  0  0  0  0  0  0  0  0  0  0  0
  129.0987  134.5390  157.3728 C   0  0  0  0  0  0  0  0  0  0  0  0
  129.0616  133.4207  158.0921 N   0  0  0  0  0  0  0  0  0  0  0  0
  128.7112  133.3349  158.9925 H   0  0  0  0  0  0  0  0  0  0  0  0
  129.6002  132.4182  157.3470 C   0  0  0  0  0  0  0  0  0  0  0  0
  129.7593  130.9803  157.7691 C   0  0  0  0  0  0  0  0  0  0  0  0
  129.9698  132.9461  156.1671 C   0  0  0  0  0  0  0  0  0  0  0  0
  130.6198  132.2084  155.0250 C   0  0  0  0  0  0  0  0  0  0  0  0
  129.6473  134.2673  156.1918 N   0  0  0  0  0  0  0  0  0  0  0  0
  129.7959  134.9027  155.4740 H   0  0  0  0  0  0  0  0  0  0  0  0
  130.8708  139.3552  161.7218 C   0  0  0  0  0  0  0  0  0  0  0  0
  131.1493  140.8201  161.4436 C   0  0  0  0  0  0  0  0  0  0  0  0
  130.3027  141.5494  160.9839 O   0  0  0  0  0  0  0  0  0  0  0  0
  132.3883  141.2694  161.7348 O   0  0  0  0  0  0  0  0  0  0  0  0
  136.3807  141.1715  162.9953 H   0  0  0  0  0  0  0  0  0  0  0  0
  134.7317  141.2920  163.6542 H   0  0  0  0  0  0  0  0  0  0  0  0
  135.3800  139.7090  163.1620 H   0  0  0  0  0  0  0  0  0  0  0  0
  135.4542  140.4727  160.8040 H   0  0  0  0  0  0  0  0  0  0  0  0
  134.8058  142.0556  161.2963 H   0  0  0  0  0  0  0  0  0  0  0  0
  134.1445  138.6047  160.8839 H   0  0  0  0  0  0  0  0  0  0  0  0
  132.1713  137.9746  159.0236 H   0  0  0  0  0  0  0  0  0  0  0  0
  133.4844  137.6266  162.9530 H   0  0  0  0  0  0  0  0  0  0  0  0
  133.5945  135.3460  163.8701 H   0  0  0  0  0  0  0  0  0  0  0  0
  132.1479  133.5758  162.9576 H   0  0  0  0  0  0  0  0  0  0  0  0
  130.5871  134.0823  161.1238 H   0  0  0  0  0  0  0  0  0  0  0  0
  130.6105  136.7631  159.1148 H   0  0  0  0  0  0  0  0  0  0  0  0
  128.9584  136.6719  162.2455 H   0  0  0  0  0  0  0  0  0  0  0  0
  126.5402  136.3454  162.5634 H   0  0  0  0  0  0  0  0  0  0  0  0
  125.1102  135.7571  160.6507 H   0  0  0  0  0  0  0  0  0  0  0  0
  126.0902  135.4902  158.4094 H   0  0  0  0  0  0  0  0  0  0  0  0
  128.7105  136.5413  157.1898 H   0  0  0  0  0  0  0  0  0  0  0  0
  128.8685  130.4185  157.4881 H   0  0  0  0  0  0  0  0  0  0  0  0
  129.8938  130.9317  158.8497 H   0  0  0  0  0  0  0  0  0  0  0  0
  130.6306  130.5508  157.2747 H   0  0  0  0  0  0  0  0  0  0  0  0
  129.8496  131.8136  154.3623 H   0  0  0  0  0  0  0  0  0  0  0  0
  131.2617  132.8918  154.4695 H   0  0  0  0  0  0  0  0  0  0  0  0
  131.2180  131.3859  155.4173 H   0  0  0  0  0  0  0  0  0  0  0  0
  129.8700  139.0959  161.3767 H   0  0  0  0  0  0  0  0  0  0  0  0
  130.9585  139.1577  162.7901 H   0  0  0  0  0  0  0  0  0  0  0  0
  1  2  1  0
  1 34  1  0
  1 35  1  0
  1 36  1  0
  2  3  1  0
  2 37  1  0
  2 38  1  0
  3 33  1  0
  3  4  2  0
  4  5  1  0
  4 39  1  0
  5  6  1  6
  5  7  1  0
  5 30  1  0
  6 40  1  0
  7 12  1  0
  7  8  2  0
  8  9  1  0
  8 41  1  0
  9 10  2  0
  9 42  1  0
 10 11  1  0
 10 43  1  0
 11 12  2  0
 11 44  1  0
 12 13  1  0
 13 14  1  0
 13 45  1  0
 14 19  1  0
 14 15  2  0
 15 16  1  0
 15 46  1  0
 16 17  2  0
 16 47  1  0
 17 18  1  0
 17 48  1  0
 18 19  2  0
 18 49  1  0
 19 20  1  0
 20 50  1  0
 21 20  1  0
 21 28  1  0
 21 22  2  0
 22 23  1  0
 22 24  1  0
 24 25  1  0
 24 26  2  0
 25 51  1  0
 25 52  1  0
 25 53  1  0
 26 27  1  0
 26 28  1  0
 27 54  1  0
 27 55  1  0
 27 56  1  0
 28 29  1  0
 30 31  1  0
 30 57  1  0
 30 58  1  0
 31 32  2  0
 31 33  1  0
M  CHG  1  22   1
M  END
>  <DOCK_score>  (1) 
-56.212234

>  <SMILES>  (1) 
CCC1=C[C@@](O)(c2ccccc2Nc2ccccc2Nc2[nH]c(C)c(C)[nH+]2)CC(=O)O1

$$$$
