c1ccc2c(Nc3ccc(-c4n[nH]cc4C[NH2+]C[C@H]4CC5CCC4CC5)o3)c[nH]c2c1
     RDKit          3D

 61 66  0  0  1  0  0  0  0  0999 V2000
  127.1939  140.3548  165.4357 C   0  0  0  0  0  0  0  0  0  0  0  0
  126.1591  140.3249  164.5103 C   0  0  0  0  0  0  0  0  0  0  0  0
  125.9775  139.2343  163.7075 C   0  0  0  0  0  0  0  0  0  0  0  0
  126.8387  138.1413  163.8174 C   0  0  0  0  0  0  0  0  0  0  0  0
  126.9314  136.8455  163.1343 C   0  0  0  0  0  0  0  0  0  0  0  0
  126.0859  136.3746  162.1144 N   0  0  0  0  0  0  0  0  0  0  0  0
  126.5768  135.4997  161.1537 C   0  0  0  0  0  0  0  0  0  0  0  0
  125.8581  134.5474  160.5071 C   0  0  0  0  0  0  0  0  0  0  0  0
  126.7407  133.8948  159.6247 C   0  0  0  0  0  0  0  0  0  0  0  0
  127.9568  134.4826  159.7772 C   0  0  0  0  0  0  0  0  0  0  0  0
  129.1904  134.1201  159.0496 C   0  0  0  0  0  0  0  0  0  0  0  0
  129.3054  133.1726  158.1398 N   0  0  0  0  0  0  0  0  0  0  0  0
  130.6328  133.1577  157.6932 N   0  0  0  0  0  0  0  0  0  0  0  0
  131.0001  132.5629  157.0207 H   0  0  0  0  0  0  0  0  0  0  0  0
  131.3139  134.1125  158.3632 C   0  0  0  0  0  0  0  0  0  0  0  0
  130.4548  134.7270  159.2042 C   0  0  0  0  0  0  0  0  0  0  0  0
  130.7872  135.8594  160.1412 C   0  0  0  0  0  0  0  0  0  0  0  0
  132.2082  136.2061  160.0058 N   0  0  0  0  0  0  0  0  0  0  0  0
  132.7737  135.4026  160.2354 H   0  0  0  0  0  0  0  0  0  0  0  0
  132.3963  136.4894  159.0559 H   0  0  0  0  0  0  0  0  0  0  0  0
  132.5322  137.3100  160.9193 C   0  0  0  0  0  0  0  0  0  0  0  0
  134.0122  137.6709  160.7782 C   0  0  1  0  0  0  0  0  0  0  0  0
  134.6001  136.7592  160.6729 H   0  0  0  0  0  0  0  0  0  0  0  0
  134.2072  138.5495  159.5409 C   0  0  0  0  0  0  0  0  0  0  0  0
  134.7970  139.8976  159.9604 C   0  0  1  0  0  0  0  0  0  0  0  0
  133.8417  140.5916  160.9333 C   0  0  0  0  0  0  0  0  0  0  0  0
  133.6467  139.7130  162.1707 C   0  0  0  0  0  0  0  0  0  0  0  0
  134.4720  138.4332  162.0227 C   0  0  2  0  0  0  0  0  0  0  0  0
  135.9522  138.7943  161.8816 C   0  0  0  0  0  0  0  0  0  0  0  0
  136.1471  139.6729  160.6443 C   0  0  0  0  0  0  0  0  0  0  0  0
  127.8454  135.4503  160.7113 O   0  0  0  0  0  0  0  0  0  0  0  0
  127.9845  136.1959  163.6662 C   0  0  0  0  0  0  0  0  0  0  0  0
  128.5672  136.9740  164.6390 N   0  0  0  0  0  0  0  0  0  0  0  0
  129.3424  136.7212  165.1647 H   0  0  0  0  0  0  0  0  0  0  0  0
  127.8867  138.1650  164.7553 C   0  0  0  0  0  0  0  0  0  0  0  0
  128.0507  139.2842  165.5659 C   0  0  0  0  0  0  0  0  0  0  0  0
  127.3248  141.2238  166.0633 H   0  0  0  0  0  0  0  0  0  0  0  0
  125.4925  141.1702  164.4246 H   0  0  0  0  0  0  0  0  0  0  0  0
  125.1701  139.2179  162.9905 H   0  0  0  0  0  0  0  0  0  0  0  0
  125.1596  136.6606  162.0818 H   0  0  0  0  0  0  0  0  0  0  0  0
  124.8086  134.3315  160.6431 H   0  0  0  0  0  0  0  0  0  0  0  0
  126.4977  133.0830  158.9550 H   0  0  0  0  0  0  0  0  0  0  0  0
  132.3615  134.3465  158.2437 H   0  0  0  0  0  0  0  0  0  0  0  0
  130.1762  136.7273  159.8932 H   0  0  0  0  0  0  0  0  0  0  0  0
  130.5839  135.5533  161.1675 H   0  0  0  0  0  0  0  0  0  0  0  0
  131.9211  138.1779  160.6714 H   0  0  0  0  0  0  0  0  0  0  0  0
  132.3290  137.0038  161.9455 H   0  0  0  0  0  0  0  0  0  0  0  0
  134.8878  138.0551  158.8479 H   0  0  0  0  0  0  0  0  0  0  0  0
  133.2453  138.7097  159.0537 H   0  0  0  0  0  0  0  0  0  0  0  0
  134.9360  140.5234  159.0789 H   0  0  0  0  0  0  0  0  0  0  0  0
  134.2619  141.5519  161.2322 H   0  0  0  0  0  0  0  0  0  0  0  0
  132.8800  140.7517  160.4462 H   0  0  0  0  0  0  0  0  0  0  0  0
  132.5923  139.4558  162.2712 H   0  0  0  0  0  0  0  0  0  0  0  0
  133.9744  140.2561  163.0572 H   0  0  0  0  0  0  0  0  0  0  0  0
  134.3331  137.8073  162.9041 H   0  0  0  0  0  0  0  0  0  0  0  0
  136.5400  137.8824  161.7762 H   0  0  0  0  0  0  0  0  0  0  0  0
  136.2796  139.3373  162.7682 H   0  0  0  0  0  0  0  0  0  0  0  0
  136.8278  139.1784  159.9512 H   0  0  0  0  0  0  0  0  0  0  0  0
  136.5673  140.6333  160.9431 H   0  0  0  0  0  0  0  0  0  0  0  0
  128.3206  135.2124  163.3730 H   0  0  0  0  0  0  0  0  0  0  0  0
  128.8539  139.3178  166.2873 H   0  0  0  0  0  0  0  0  0  0  0  0
  1 36  2  0
  1  2  1  0
  1 37  1  0
  2  3  2  0
  2 38  1  0
  3  4  1  0
  3 39  1  0
  4 35  2  0
  4  5  1  0
  5  6  1  0
  5 32  2  0
  6  7  1  0
  6 40  1  0
  7 31  1  0
  7  8  2  0
  8  9  1  0
  8 41  1  0
  9 10  2  0
  9 42  1  0
 10 11  1  0
 10 31  1  0
 11 16  1  0
 11 12  2  0
 12 13  1  0
 13 14  1  0
 13 15  1  0
 15 16  2  0
 15 43  1  0
 16 17  1  0
 17 18  1  0
 17 44  1  0
 17 45  1  0
 18 19  1  0
 18 20  1  0
 18 21  1  0
 21 22  1  0
 21 46  1  0
 21 47  1  0
 22 23  1  6
 22 28  1  0
 22 24  1  0
 24 25  1  0
 24 48  1  0
 24 49  1  0
 25 30  1  0
 25 26  1  0
 25 50  1  6
 26 27  1  0
 26 51  1  0
 26 52  1  0
 27 28  1  0
 27 53  1  0
 27 54  1  0
 28 29  1  0
 28 55  1  1
 29 30  1  0
 29 56  1  0
 29 57  1  0
 30 58  1  0
 30 59  1  0
 32 33  1  0
 32 60  1  0
 33 34  1  0
 33 35  1  0
 35 36  1  0
 36 61  1  0
M  CHG  1  18   1
M  END
>  <DOCK_score>  (1) 
-49.799339

>  <SMILES>  (1) 
c1ccc2c(Nc3ccc(-c4n[nH]cc4C[NH2+]C[C@H]4CC5CCC4CC5)o3)c[nH]c2c1

$$$$
