Cc1c(N2CC[NH+]([C@@H](c3ccccc3)c3ccccc3Cl)CC2)ccc2c1CCC2
     RDKit          3D

 60 64  0  0  1  0  0  0  0  0999 V2000
  133.4723  137.5785  163.7745 C   0  0  0  0  0  0  0  0  0  0  0  0
  134.0416  138.2486  162.5506 C   0  0  0  0  0  0  0  0  0  0  0  0
  133.6085  137.8676  161.2880 C   0  0  0  0  0  0  0  0  0  0  0  0
  132.6459  136.8648  161.1503 N   0  0  0  0  0  0  0  0  0  0  0  0
  133.1969  135.6992  160.4445 C   0  0  0  0  0  0  0  0  0  0  0  0
  132.1319  134.6032  160.3672 C   0  0  0  0  0  0  0  0  0  0  0  0
  130.9527  135.1152  159.6565 N   0  0  0  0  0  0  0  0  0  0  0  0
  131.2196  135.4044  158.7275 H   0  0  0  0  0  0  0  0  0  0  0  0
  129.9377  134.0571  159.5668 C   0  0  1  0  0  0  0  0  0  0  0  0
  129.6496  133.7438  160.5703 H   0  0  0  0  0  0  0  0  0  0  0  0
  128.7278  134.5822  158.8378 C   0  0  0  0  0  0  0  0  0  0  0  0
  127.4733  134.0803  159.1294 C   0  0  0  0  0  0  0  0  0  0  0  0
  126.3630  134.5648  158.4634 C   0  0  0  0  0  0  0  0  0  0  0  0
  126.5084  135.5451  157.4996 C   0  0  0  0  0  0  0  0  0  0  0  0
  127.7636  136.0435  157.2045 C   0  0  0  0  0  0  0  0  0  0  0  0
  128.8733  135.5617  157.8733 C   0  0  0  0  0  0  0  0  0  0  0  0
  130.5045  132.8796  158.8163 C   0  0  0  0  0  0  0  0  0  0  0  0
  130.9409  133.0350  157.5138 C   0  0  0  0  0  0  0  0  0  0  0  0
  131.4604  131.9550  156.8252 C   0  0  0  0  0  0  0  0  0  0  0  0
  131.5440  130.7187  157.4385 C   0  0  0  0  0  0  0  0  0  0  0  0
  131.1086  130.5622  158.7407 C   0  0  0  0  0  0  0  0  0  0  0  0
  130.5937  131.6443  159.4326 C   0  0  0  0  0  0  0  0  0  0  0  0
  130.0531  131.4502  161.0709 Cl  0  0  0  0  0  0  0  0  0  0  0  0
  130.3994  136.2634  160.3865 C   0  0  0  0  0  0  0  0  0  0  0  0
  131.4499  137.3733  160.4640 C   0  0  0  0  0  0  0  0  0  0  0  0
  134.1352  138.4871  160.1621 C   0  0  0  0  0  0  0  0  0  0  0  0
  135.0856  139.4776  160.3040 C   0  0  0  0  0  0  0  0  0  0  0  0
  135.5167  139.8573  161.5647 C   0  0  0  0  0  0  0  0  0  0  0  0
  134.9942  139.2422  162.6881 C   0  0  0  0  0  0  0  0  0  0  0  0
  135.6232  139.8310  163.9328 C   0  0  0  0  0  0  0  0  0  0  0  0
  136.2555  141.1623  163.4748 C   0  0  0  0  0  0  0  0  0  0  0  0
  136.5323  140.9008  161.9792 C   0  0  0  0  0  0  0  0  0  0  0  0
  134.0789  136.7091  164.0281 H   0  0  0  0  0  0  0  0  0  0  0  0
  133.4769  138.2804  164.6084 H   0  0  0  0  0  0  0  0  0  0  0  0
  132.4492  137.2613  163.5724 H   0  0  0  0  0  0  0  0  0  0  0  0
  133.4926  135.9907  159.4367 H   0  0  0  0  0  0  0  0  0  0  0  0
  134.0661  135.3243  160.9848 H   0  0  0  0  0  0  0  0  0  0  0  0
  131.8462  134.3023  161.3752 H   0  0  0  0  0  0  0  0  0  0  0  0
  132.5338  133.7431  159.8316 H   0  0  0  0  0  0  0  0  0  0  0  0
  127.3601  133.3120  159.8798 H   0  0  0  0  0  0  0  0  0  0  0  0
  125.3825  134.1752  158.6938 H   0  0  0  0  0  0  0  0  0  0  0  0
  125.6414  135.9212  156.9769 H   0  0  0  0  0  0  0  0  0  0  0  0
  127.8772  136.8090  156.4512 H   0  0  0  0  0  0  0  0  0  0  0  0
  129.8540  135.9509  157.6424 H   0  0  0  0  0  0  0  0  0  0  0  0
  130.8755  134.0003  157.0341 H   0  0  0  0  0  0  0  0  0  0  0  0
  131.8008  132.0768  155.8076 H   0  0  0  0  0  0  0  0  0  0  0  0
  131.9494  129.8750  156.8998 H   0  0  0  0  0  0  0  0  0  0  0  0
  131.1743  129.5965  159.2199 H   0  0  0  0  0  0  0  0  0  0  0  0
  130.1227  135.9542  161.3944 H   0  0  0  0  0  0  0  0  0  0  0  0
  129.5169  136.6343  159.8652 H   0  0  0  0  0  0  0  0  0  0  0  0
  131.0447  138.2197  161.0184 H   0  0  0  0  0  0  0  0  0  0  0  0
  131.7169  137.6924  159.4564 H   0  0  0  0  0  0  0  0  0  0  0  0
  133.8019  138.1941  159.1773 H   0  0  0  0  0  0  0  0  0  0  0  0
  135.4949  139.9592  159.4284 H   0  0  0  0  0  0  0  0  0  0  0  0
  136.3907  139.1617  164.3215 H   0  0  0  0  0  0  0  0  0  0  0  0
  134.8617  140.0148  164.6906 H   0  0  0  0  0  0  0  0  0  0  0  0
  135.5545  141.9875  163.6006 H   0  0  0  0  0  0  0  0  0  0  0  0
  137.1818  141.3573  164.0150 H   0  0  0  0  0  0  0  0  0  0  0  0
  136.3916  141.8153  161.4030 H   0  0  0  0  0  0  0  0  0  0  0  0
  137.5441  140.5189  161.8430 H   0  0  0  0  0  0  0  0  0  0  0  0
  1  2  1  0
  1 33  1  0
  1 34  1  0
  1 35  1  0
  2 29  2  0
  2  3  1  0
  3  4  1  0
  3 26  2  0
  4 25  1  0
  4  5  1  0
  5  6  1  0
  5 36  1  0
  5 37  1  0
  6  7  1  0
  6 38  1  0
  6 39  1  0
  7  8  1  0
  7  9  1  0
  7 24  1  0
  9 10  1  1
  9 11  1  0
  9 17  1  0
 11 16  1  0
 11 12  2  0
 12 13  1  0
 12 40  1  0
 13 14  2  0
 13 41  1  0
 14 15  1  0
 14 42  1  0
 15 16  2  0
 15 43  1  0
 16 44  1  0
 17 22  1  0
 17 18  2  0
 18 19  1  0
 18 45  1  0
 19 20  2  0
 19 46  1  0
 20 21  1  0
 20 47  1  0
 21 22  2  0
 21 48  1  0
 22 23  1  0
 24 25  1  0
 24 49  1  0
 24 50  1  0
 25 51  1  0
 25 52  1  0
 26 27  1  0
 26 53  1  0
 27 28  2  0
 27 54  1  0
 28 32  1  0
 28 29  1  0
 29 30  1  0
 30 31  1  0
 30 55  1  0
 30 56  1  0
 31 32  1  0
 31 57  1  0
 31 58  1  0
 32 59  1  0
 32 60  1  0
M  CHG  1   7   1
M  END
>  <DOCK_score>  (1) 
-56.337067

>  <SMILES>  (1) 
Cc1c(N2CC[NH+]([C@@H](c3ccccc3)c3ccccc3Cl)CC2)ccc2c1CCC2

$$$$
