CCc1ccc(-c2c[nH]c(N[C@H](C)Cc3c[nH]c4ccc(F)cc34)[nH+]2)cc1
     RDKit          3D

 51 54  0  0  1  0  0  0  0  0999 V2000
  130.2373  128.3072  151.8326 C   0  0  0  0  0  0  0  0  0  0  0  0
  131.2328  129.4601  151.9734 C   0  0  0  0  0  0  0  0  0  0  0  0
  130.9732  130.1933  153.2643 C   0  0  0  0  0  0  0  0  0  0  0  0
  131.6191  129.7991  154.4223 C   0  0  0  0  0  0  0  0  0  0  0  0
  131.3850  130.4668  155.6073 C   0  0  0  0  0  0  0  0  0  0  0  0
  130.4963  131.5400  155.6357 C   0  0  0  0  0  0  0  0  0  0  0  0
  130.2408  132.2615  156.9063 C   0  0  0  0  0  0  0  0  0  0  0  0
  129.7398  131.7206  158.0444 C   0  0  0  0  0  0  0  0  0  0  0  0
  129.6664  132.7341  158.9688 N   0  0  0  0  0  0  0  0  0  0  0  0
  129.3434  132.6581  159.8802 H   0  0  0  0  0  0  0  0  0  0  0  0
  130.1250  133.8658  158.3679 C   0  0  0  0  0  0  0  0  0  0  0  0
  130.2148  135.1137  158.9604 N   0  0  0  0  0  0  0  0  0  0  0  0
  129.7953  135.2956  160.3522 C   0  0  2  0  0  0  0  0  0  0  0  0
  130.1149  134.4373  160.9432 H   0  0  0  0  0  0  0  0  0  0  0  0
  128.2714  135.4183  160.4137 C   0  0  0  0  0  0  0  0  0  0  0  0
  130.4325  136.5678  160.9148 C   0  0  0  0  0  0  0  0  0  0  0  0
  131.8575  136.2821  161.3132 C   0  0  0  0  0  0  0  0  0  0  0  0
  132.9433  136.3972  160.5322 C   0  0  0  0  0  0  0  0  0  0  0  0
  134.0641  136.0558  161.2384 N   0  0  0  0  0  0  0  0  0  0  0  0
  134.9681  136.0632  160.8868 H   0  0  0  0  0  0  0  0  0  0  0  0
  133.7166  135.6938  162.5220 C   0  0  0  0  0  0  0  0  0  0  0  0
  134.4477  135.2663  163.6255 C   0  0  0  0  0  0  0  0  0  0  0  0
  133.8020  134.9704  164.8053 C   0  0  0  0  0  0  0  0  0  0  0  0
  132.4211  135.0947  164.9080 C   0  0  0  0  0  0  0  0  0  0  0  0
  131.8046  134.8001  166.0735 F   0  0  0  0  0  0  0  0  0  0  0  0
  131.6780  135.5165  163.8270 C   0  0  0  0  0  0  0  0  0  0  0  0
  132.3197  135.8200  162.6242 C   0  0  0  0  0  0  0  0  0  0  0  0
  130.4673  133.5794  157.1355 N   0  0  0  0  0  0  0  0  0  0  0  0
  130.8253  134.2092  156.4904 H   0  0  0  0  0  0  0  0  0  0  0  0
  129.8442  131.9292  154.4670 C   0  0  0  0  0  0  0  0  0  0  0  0
  130.0905  131.2581  153.2863 C   0  0  0  0  0  0  0  0  0  0  0  0
  130.3559  127.6203  152.6705 H   0  0  0  0  0  0  0  0  0  0  0  0
  129.2216  128.7027  151.8278 H   0  0  0  0  0  0  0  0  0  0  0  0
  130.4251  127.7771  150.8988 H   0  0  0  0  0  0  0  0  0  0  0  0
  131.1144  130.1472  151.1354 H   0  0  0  0  0  0  0  0  0  0  0  0
  132.2487  129.0648  151.9781 H   0  0  0  0  0  0  0  0  0  0  0  0
  132.3071  128.9671  154.3992 H   0  0  0  0  0  0  0  0  0  0  0  0
  131.8900  130.1583  156.5108 H   0  0  0  0  0  0  0  0  0  0  0  0
  129.4530  130.6904  158.1951 H   0  0  0  0  0  0  0  0  0  0  0  0
  130.5555  135.8678  158.4541 H   0  0  0  0  0  0  0  0  0  0  0  0
  127.8175  134.5120  160.0130 H   0  0  0  0  0  0  0  0  0  0  0  0
  127.9594  135.5537  161.4493 H   0  0  0  0  0  0  0  0  0  0  0  0
  127.9519  136.2767  159.8228 H   0  0  0  0  0  0  0  0  0  0  0  0
  130.4173  137.3486  160.1546 H   0  0  0  0  0  0  0  0  0  0  0  0
  129.8708  136.8999  161.7880 H   0  0  0  0  0  0  0  0  0  0  0  0
  132.9335  136.7147  159.5000 H   0  0  0  0  0  0  0  0  0  0  0  0
  135.5209  135.1659  163.5568 H   0  0  0  0  0  0  0  0  0  0  0  0
  134.3740  134.6386  165.6592 H   0  0  0  0  0  0  0  0  0  0  0  0
  130.6054  135.6118  163.9093 H   0  0  0  0  0  0  0  0  0  0  0  0
  129.1511  132.7573  154.4841 H   0  0  0  0  0  0  0  0  0  0  0  0
  129.5892  131.5616  152.3792 H   0  0  0  0  0  0  0  0  0  0  0  0
  1  2  1  0
  1 32  1  0
  1 33  1  0
  1 34  1  0
  2  3  1  0
  2 35  1  0
  2 36  1  0
  3 31  2  0
  3  4  1  0
  4  5  2  0
  4 37  1  0
  5  6  1  0
  5 38  1  0
  6  7  1  0
  6 30  2  0
  7 28  1  0
  7  8  2  0
  8  9  1  0
  8 39  1  0
  9 10  1  0
  9 11  1  0
 11 12  1  0
 11 28  2  0
 12 13  1  0
 12 40  1  0
 13 14  1  1
 13 15  1  0
 13 16  1  0
 15 41  1  0
 15 42  1  0
 15 43  1  0
 16 17  1  0
 16 44  1  0
 16 45  1  0
 17 27  1  0
 17 18  2  0
 18 19  1  0
 18 46  1  0
 19 20  1  0
 19 21  1  0
 21 27  2  0
 21 22  1  0
 22 23  2  0
 22 47  1  0
 23 24  1  0
 23 48  1  0
 24 25  1  0
 24 26  2  0
 26 27  1  0
 26 49  1  0
 28 29  1  0
 30 31  1  0
 30 50  1  0
 31 51  1  0
M  CHG  1  28   1
M  END
>  <DOCK_score>  (1) 
-58.958408

>  <SMILES>  (1) 
CCc1ccc(-c2c[nH]c(N[C@H](C)Cc3c[nH]c4ccc(F)cc34)[nH+]2)cc1

$$$$
