Oc1ccc(-c2c[nH]c(N[C@@H](CCc3ccccc3)c3ccccc3)[nH+]2)cc1
     RDKit          3D

 52 55  0  0  1  0  0  0  0  0999 V2000
  131.8032  129.4676  152.1566 O   0  0  0  0  0  0  0  0  0  0  0  0
  131.4385  130.1458  153.2766 C   0  0  0  0  0  0  0  0  0  0  0  0
  130.6690  131.2961  153.1698 C   0  0  0  0  0  0  0  0  0  0  0  0
  130.2926  131.9835  154.3050 C   0  0  0  0  0  0  0  0  0  0  0  0
  130.6905  131.5250  155.5596 C   0  0  0  0  0  0  0  0  0  0  0  0
  130.2877  132.2622  156.7825 C   0  0  0  0  0  0  0  0  0  0  0  0
  129.5548  131.7647  157.8090 C   0  0  0  0  0  0  0  0  0  0  0  0
  129.4151  132.7782  158.7271 N   0  0  0  0  0  0  0  0  0  0  0  0
  128.9390  132.7277  159.5706 H   0  0  0  0  0  0  0  0  0  0  0  0
  130.0674  133.8655  158.2333 C   0  0  0  0  0  0  0  0  0  0  0  0
  130.1654  135.0984  158.8556 N   0  0  0  0  0  0  0  0  0  0  0  0
  129.0927  135.5597  159.7403 C   0  0  1  0  0  0  0  0  0  0  0  0
  128.9746  134.8570  160.5652 H   0  0  0  0  0  0  0  0  0  0  0  0
  129.4471  136.9413  160.2941 C   0  0  0  0  0  0  0  0  0  0  0  0
  130.4301  136.7880  161.4564 C   0  0  0  0  0  0  0  0  0  0  0  0
  130.7791  138.1487  162.0020 C   0  0  0  0  0  0  0  0  0  0  0  0
  131.8597  138.8424  161.4899 C   0  0  0  0  0  0  0  0  0  0  0  0
  132.1769  140.0927  161.9869 C   0  0  0  0  0  0  0  0  0  0  0  0
  131.4199  140.6448  163.0032 C   0  0  0  0  0  0  0  0  0  0  0  0
  130.3425  139.9489  163.5189 C   0  0  0  0  0  0  0  0  0  0  0  0
  130.0222  138.7010  163.0183 C   0  0  0  0  0  0  0  0  0  0  0  0
  127.8035  135.6451  158.9645 C   0  0  0  0  0  0  0  0  0  0  0  0
  126.5964  135.4368  159.6051 C   0  0  0  0  0  0  0  0  0  0  0  0
  125.4136  135.5195  158.8944 C   0  0  0  0  0  0  0  0  0  0  0  0
  125.4386  135.8011  157.5412 C   0  0  0  0  0  0  0  0  0  0  0  0
  126.6459  136.0042  156.8996 C   0  0  0  0  0  0  0  0  0  0  0  0
  127.8285  135.9259  157.6112 C   0  0  0  0  0  0  0  0  0  0  0  0
  130.5923  133.5516  157.0740 N   0  0  0  0  0  0  0  0  0  0  0  0
  131.1132  134.1471  156.5128 H   0  0  0  0  0  0  0  0  0  0  0  0
  131.4680  130.3728  155.6631 C   0  0  0  0  0  0  0  0  0  0  0  0
  131.8411  129.6900  154.5243 C   0  0  0  0  0  0  0  0  0  0  0  0
  131.4765  129.8600  151.3353 H   0  0  0  0  0  0  0  0  0  0  0  0
  130.3610  131.6509  152.1973 H   0  0  0  0  0  0  0  0  0  0  0  0
  129.6898  132.8758  154.2217 H   0  0  0  0  0  0  0  0  0  0  0  0
  129.1568  130.7640  157.8896 H   0  0  0  0  0  0  0  0  0  0  0  0
  130.9444  135.6567  158.7058 H   0  0  0  0  0  0  0  0  0  0  0  0
  129.9049  137.5413  159.5077 H   0  0  0  0  0  0  0  0  0  0  0  0
  128.5413  137.4345  160.6468 H   0  0  0  0  0  0  0  0  0  0  0  0
  129.9723  136.1878  162.2428 H   0  0  0  0  0  0  0  0  0  0  0  0
  131.3358  136.2947  161.1036 H   0  0  0  0  0  0  0  0  0  0  0  0
  132.4538  138.4091  160.6988 H   0  0  0  0  0  0  0  0  0  0  0  0
  133.0189  140.6362  161.5843 H   0  0  0  0  0  0  0  0  0  0  0  0
  131.6704  141.6198  163.3946 H   0  0  0  0  0  0  0  0  0  0  0  0
  129.7513  140.3803  164.3133 H   0  0  0  0  0  0  0  0  0  0  0  0
  129.1806  138.1571  163.4215 H   0  0  0  0  0  0  0  0  0  0  0  0
  126.5771  135.2132  160.6615 H   0  0  0  0  0  0  0  0  0  0  0  0
  124.4702  135.3611  159.3957 H   0  0  0  0  0  0  0  0  0  0  0  0
  124.5146  135.8630  156.9854 H   0  0  0  0  0  0  0  0  0  0  0  0
  126.6655  136.2243  155.8426 H   0  0  0  0  0  0  0  0  0  0  0  0
  128.7720  136.0845  157.1100 H   0  0  0  0  0  0  0  0  0  0  0  0
  131.7781  130.0153  156.6338 H   0  0  0  0  0  0  0  0  0  0  0  0
  132.4435  128.7971  154.6038 H   0  0  0  0  0  0  0  0  0  0  0  0
  1  2  1  0
  1 32  1  0
  2 31  2  0
  2  3  1  0
  3  4  2  0
  3 33  1  0
  4  5  1  0
  4 34  1  0
  5  6  1  0
  5 30  2  0
  6 28  1  0
  6  7  2  0
  7  8  1  0
  7 35  1  0
  8  9  1  0
  8 10  1  0
 10 11  1  0
 10 28  2  0
 11 12  1  0
 11 36  1  0
 12 13  1  1
 12 14  1  0
 12 22  1  0
 14 15  1  0
 14 37  1  0
 14 38  1  0
 15 16  1  0
 15 39  1  0
 15 40  1  0
 16 21  1  0
 16 17  2  0
 17 18  1  0
 17 41  1  0
 18 19  2  0
 18 42  1  0
 19 20  1  0
 19 43  1  0
 20 21  2  0
 20 44  1  0
 21 45  1  0
 22 27  1  0
 22 23  2  0
 23 24  1  0
 23 46  1  0
 24 25  2  0
 24 47  1  0
 25 26  1  0
 25 48  1  0
 26 27  2  0
 26 49  1  0
 27 50  1  0
 28 29  1  0
 30 31  1  0
 30 51  1  0
 31 52  1  0
M  CHG  1  28   1
M  END
>  <DOCK_score>  (1) 
-58.220963

>  <SMILES>  (1) 
Oc1ccc(-c2c[nH]c(N[C@@H](CCc3ccccc3)c3ccccc3)[nH+]2)cc1

$$$$
