OC[C@@H](Cc1ccc(-c2ccccc2)cc1)Nc1[nH]cc(-c2ccc(Br)cc2)[nH+]1
     RDKit          3D

 52 55  0  0  1  0  0  0  0  0999 V2000
  130.2674  133.5525  161.7464 O   0  0  0  0  0  0  0  0  0  0  0  0
  130.6527  134.9283  161.7652 C   0  0  0  0  0  0  0  0  0  0  0  0
  129.7327  135.7283  160.8406 C   0  0  1  0  0  0  0  0  0  0  0  0
  128.7093  135.3683  160.9464 H   0  0  0  0  0  0  0  0  0  0  0  0
  129.7937  137.2098  161.2177 C   0  0  0  0  0  0  0  0  0  0  0  0
  131.2087  137.7074  161.0715 C   0  0  0  0  0  0  0  0  0  0  0  0
  131.6326  138.2342  159.8648 C   0  0  0  0  0  0  0  0  0  0  0  0
  132.9276  138.6910  159.7253 C   0  0  0  0  0  0  0  0  0  0  0  0
  133.8083  138.6208  160.8027 C   0  0  0  0  0  0  0  0  0  0  0  0
  135.2018  139.1098  160.6585 C   0  0  0  0  0  0  0  0  0  0  0  0
  135.8782  139.6292  161.7605 C   0  0  0  0  0  0  0  0  0  0  0  0
  137.1741  140.0831  161.6206 C   0  0  0  0  0  0  0  0  0  0  0  0
  137.8015  140.0230  160.3892 C   0  0  0  0  0  0  0  0  0  0  0  0
  137.1329  139.5133  159.2908 C   0  0  0  0  0  0  0  0  0  0  0  0
  135.8386  139.0518  159.4205 C   0  0  0  0  0  0  0  0  0  0  0  0
  133.3773  138.0844  162.0144 C   0  0  0  0  0  0  0  0  0  0  0  0
  132.0787  137.6354  162.1443 C   0  0  0  0  0  0  0  0  0  0  0  0
  130.1688  135.5592  159.4524 N   0  0  0  0  0  0  0  0  0  0  0  0
  130.1979  134.2969  158.8847 C   0  0  0  0  0  0  0  0  0  0  0  0
  129.8421  133.1398  159.5064 N   0  0  0  0  0  0  0  0  0  0  0  0
  129.5255  133.0518  160.4190 H   0  0  0  0  0  0  0  0  0  0  0  0
  130.0140  132.1193  158.6027 C   0  0  0  0  0  0  0  0  0  0  0  0
  130.4695  132.6818  157.4560 C   0  0  0  0  0  0  0  0  0  0  0  0
  130.7970  131.9622  156.2009 C   0  0  0  0  0  0  0  0  0  0  0  0
  130.6445  132.5981  154.9700 C   0  0  0  0  0  0  0  0  0  0  0  0
  130.9565  131.9263  153.8058 C   0  0  0  0  0  0  0  0  0  0  0  0
  131.4084  130.6190  153.8581 C   0  0  0  0  0  0  0  0  0  0  0  0
  131.8261  129.7017  152.2581 Br  0  0  0  0  0  0  0  0  0  0  0  0
  131.5564  129.9810  155.0775 C   0  0  0  0  0  0  0  0  0  0  0  0
  131.2530  130.6459  156.2481 C   0  0  0  0  0  0  0  0  0  0  0  0
  130.5673  134.0198  157.6580 N   0  0  0  0  0  0  0  0  0  0  0  0
  130.8653  134.6676  157.0004 H   0  0  0  0  0  0  0  0  0  0  0  0
  130.8089  132.9846  162.3115 H   0  0  0  0  0  0  0  0  0  0  0  0
  131.6830  135.0219  161.4223 H   0  0  0  0  0  0  0  0  0  0  0  0
  130.5714  135.3145  162.7813 H   0  0  0  0  0  0  0  0  0  0  0  0
  129.4692  137.3355  162.2506 H   0  0  0  0  0  0  0  0  0  0  0  0
  129.1383  137.7796  160.5589 H   0  0  0  0  0  0  0  0  0  0  0  0
  130.9494  138.2877  159.0302 H   0  0  0  0  0  0  0  0  0  0  0  0
  133.2578  139.1018  158.7825 H   0  0  0  0  0  0  0  0  0  0  0  0
  135.3892  139.6768  162.7223 H   0  0  0  0  0  0  0  0  0  0  0  0
  137.6994  140.4855  162.4740 H   0  0  0  0  0  0  0  0  0  0  0  0
  138.8154  140.3797  160.2841 H   0  0  0  0  0  0  0  0  0  0  0  0
  137.6261  139.4725  158.3308 H   0  0  0  0  0  0  0  0  0  0  0  0
  135.3189  138.6505  158.5630 H   0  0  0  0  0  0  0  0  0  0  0  0
  134.0571  138.0238  162.8515 H   0  0  0  0  0  0  0  0  0  0  0  0
  131.7425  137.2232  163.0843 H   0  0  0  0  0  0  0  0  0  0  0  0
  130.4373  136.3319  158.9308 H   0  0  0  0  0  0  0  0  0  0  0  0
  129.8224  131.0702  158.7729 H   0  0  0  0  0  0  0  0  0  0  0  0
  130.2870  133.6163  154.9279 H   0  0  0  0  0  0  0  0  0  0  0  0
  130.8432  132.4196  152.8517 H   0  0  0  0  0  0  0  0  0  0  0  0
  131.9093  128.9610  155.1130 H   0  0  0  0  0  0  0  0  0  0  0  0
  131.3689  130.1473  157.1990 H   0  0  0  0  0  0  0  0  0  0  0  0
  1  2  1  0
  1 33  1  0
  2  3  1  0
  2 34  1  0
  2 35  1  0
  3  4  1  6
  3  5  1  0
  3 18  1  0
  5  6  1  0
  5 36  1  0
  5 37  1  0
  6 17  1  0
  6  7  2  0
  7  8  1  0
  7 38  1  0
  8  9  2  0
  8 39  1  0
  9 10  1  0
  9 16  1  0
 10 15  1  0
 10 11  2  0
 11 12  1  0
 11 40  1  0
 12 13  2  0
 12 41  1  0
 13 14  1  0
 13 42  1  0
 14 15  2  0
 14 43  1  0
 15 44  1  0
 16 17  2  0
 16 45  1  0
 17 46  1  0
 18 47  1  0
 19 18  1  0
 19 31  2  0
 19 20  1  0
 20 21  1  0
 20 22  1  0
 22 23  2  0
 22 48  1  0
 23 24  1  0
 23 31  1  0
 24 30  1  0
 24 25  2  0
 25 26  1  0
 25 49  1  0
 26 27  2  0
 26 50  1  0
 27 28  1  0
 27 29  1  0
 29 30  2  0
 29 51  1  0
 30 52  1  0
 31 32  1  0
M  CHG  1  31   1
M  END
>  <DOCK_score>  (1) 
-59.569756

>  <SMILES>  (1) 
OC[C@@H](Cc1ccc(-c2ccccc2)cc1)Nc1[nH]cc(-c2ccc(Br)cc2)[nH+]1

$$$$
