Cc1cccc(N2CC[NH+](C(c3ccccc3)c3ccccc3)CC2)c1CSCC=CCF
     RDKit          3D

 67 70  0  0  1  0  0  0  0  0999 V2000
  135.8938  141.5418  162.2955 C   0  0  0  0  0  0  0  0  0  0  0  0
  135.2906  140.7130  161.1908 C   0  0  0  0  0  0  0  0  0  0  0  0
  135.6985  140.9034  159.8829 C   0  0  0  0  0  0  0  0  0  0  0  0
  135.1479  140.1449  158.8666 C   0  0  0  0  0  0  0  0  0  0  0  0
  134.1882  139.1942  159.1541 C   0  0  0  0  0  0  0  0  0  0  0  0
  133.7795  138.9975  160.4669 C   0  0  0  0  0  0  0  0  0  0  0  0
  132.8126  138.0337  160.7621 N   0  0  0  0  0  0  0  0  0  0  0  0
  133.2954  136.6851  160.4328 C   0  0  0  0  0  0  0  0  0  0  0  0
  132.2329  135.6561  160.8253 C   0  0  0  0  0  0  0  0  0  0  0  0
  130.9864  135.9388  160.1015 N   0  0  0  0  0  0  0  0  0  0  0  0
  131.1577  135.8975  159.1080 H   0  0  0  0  0  0  0  0  0  0  0  0
  129.9722  134.9401  160.4649 C   0  0  0  0  0  0  0  0  0  0  0  0
  128.6932  135.2300  159.7225 C   0  0  0  0  0  0  0  0  0  0  0  0
  127.4763  134.8889  160.2827 C   0  0  0  0  0  0  0  0  0  0  0  0
  126.3029  135.1592  159.6038 C   0  0  0  0  0  0  0  0  0  0  0  0
  126.3465  135.7610  158.3608 C   0  0  0  0  0  0  0  0  0  0  0  0
  127.5640  136.0972  157.7976 C   0  0  0  0  0  0  0  0  0  0  0  0
  128.7372  135.8317  158.4788 C   0  0  0  0  0  0  0  0  0  0  0  0
  130.4664  133.5651  160.0961 C   0  0  0  0  0  0  0  0  0  0  0  0
  130.0673  132.4662  160.8334 C   0  0  0  0  0  0  0  0  0  0  0  0
  130.5169  131.2044  160.4921 C   0  0  0  0  0  0  0  0  0  0  0  0
  131.3742  131.0427  159.4198 C   0  0  0  0  0  0  0  0  0  0  0  0
  131.7776  132.1423  158.6855 C   0  0  0  0  0  0  0  0  0  0  0  0
  131.3238  133.4035  159.0237 C   0  0  0  0  0  0  0  0  0  0  0  0
  130.5035  137.2791  160.4594 C   0  0  0  0  0  0  0  0  0  0  0  0
  131.5517  138.3215  160.0639 C   0  0  0  0  0  0  0  0  0  0  0  0
  134.3311  139.7647  161.4853 C   0  0  0  0  0  0  0  0  0  0  0  0
  133.8874  139.5579  162.9106 C   0  0  0  0  0  0  0  0  0  0  0  0
  132.4839  140.6491  163.2713 S   0  0  0  0  0  0  0  0  0  0  0  0
  132.0997  140.2614  165.0012 C   0  0  0  0  0  0  0  0  0  0  0  0
  133.0621  140.9887  165.9046 C   0  0  0  0  0  0  0  0  0  0  0  0
  132.6118  141.8463  166.7865 C   0  0  0  0  0  0  0  0  0  0  0  0
  133.5741  142.5737  167.6900 C   0  0  0  0  0  0  0  0  0  0  0  0
  133.4560  143.9523  167.4837 F   0  0  0  0  0  0  0  0  0  0  0  0
  136.7755  141.0362  162.6891 H   0  0  0  0  0  0  0  0  0  0  0  0
  136.1795  142.5178  161.9029 H   0  0  0  0  0  0  0  0  0  0  0  0
  135.1625  141.6711  163.0934 H   0  0  0  0  0  0  0  0  0  0  0  0
  136.4488  141.6460  159.6553 H   0  0  0  0  0  0  0  0  0  0  0  0
  135.4687  140.2960  157.8464 H   0  0  0  0  0  0  0  0  0  0  0  0
  133.7585  138.6021  158.3597 H   0  0  0  0  0  0  0  0  0  0  0  0
  133.4876  136.6191  159.3618 H   0  0  0  0  0  0  0  0  0  0  0  0
  134.2160  136.4845  160.9809 H   0  0  0  0  0  0  0  0  0  0  0  0
  132.0508  135.7132  161.8984 H   0  0  0  0  0  0  0  0  0  0  0  0
  132.5831  134.6563  160.5688 H   0  0  0  0  0  0  0  0  0  0  0  0
  129.7873  134.9840  161.5382 H   0  0  0  0  0  0  0  0  0  0  0  0
  127.4422  134.4148  161.2525 H   0  0  0  0  0  0  0  0  0  0  0  0
  125.3519  134.8961  160.0430 H   0  0  0  0  0  0  0  0  0  0  0  0
  125.4303  135.9680  157.8277 H   0  0  0  0  0  0  0  0  0  0  0  0
  127.5983  136.5671  156.8257 H   0  0  0  0  0  0  0  0  0  0  0  0
  129.6881  136.0941  158.0391 H   0  0  0  0  0  0  0  0  0  0  0  0
  129.4011  132.5930  161.6740 H   0  0  0  0  0  0  0  0  0  0  0  0
  130.2020  130.3453  161.0660 H   0  0  0  0  0  0  0  0  0  0  0  0
  131.7290  130.0574  159.1558 H   0  0  0  0  0  0  0  0  0  0  0  0
  132.4476  132.0161  157.8480 H   0  0  0  0  0  0  0  0  0  0  0  0
  131.6392  134.2627  158.4503 H   0  0  0  0  0  0  0  0  0  0  0  0
  130.3303  137.3278  161.5344 H   0  0  0  0  0  0  0  0  0  0  0  0
  129.5718  137.4825  159.9317 H   0  0  0  0  0  0  0  0  0  0  0  0
  131.2001  139.3148  160.3428 H   0  0  0  0  0  0  0  0  0  0  0  0
  131.7152  138.2824  158.9869 H   0  0  0  0  0  0  0  0  0  0  0  0
  133.5859  138.5199  163.0502 H   0  0  0  0  0  0  0  0  0  0  0  0
  134.7115  139.7908  163.5851 H   0  0  0  0  0  0  0  0  0  0  0  0
  131.0809  140.5767  165.2267 H   0  0  0  0  0  0  0  0  0  0  0  0
  132.1917  139.1873  165.1619 H   0  0  0  0  0  0  0  0  0  0  0  0
  134.1230  140.8029  165.8250 H   0  0  0  0  0  0  0  0  0  0  0  0
  131.5508  142.0323  166.8661 H   0  0  0  0  0  0  0  0  0  0  0  0
  133.3433  142.3407  168.7294 H   0  0  0  0  0  0  0  0  0  0  0  0
  134.5929  142.2585  167.4646 H   0  0  0  0  0  0  0  0  0  0  0  0
  1  2  1  0
  1 35  1  0
  1 36  1  0
  1 37  1  0
  2 27  2  0
  2  3  1  0
  3  4  2  0
  3 38  1  0
  4  5  1  0
  4 39  1  0
  5  6  2  0
  5 40  1  0
  6  7  1  0
  6 27  1  0
  7 26  1  0
  7  8  1  0
  8  9  1  0
  8 41  1  0
  8 42  1  0
  9 10  1  0
  9 43  1  0
  9 44  1  0
 10 11  1  0
 10 12  1  0
 10 25  1  0
 12 13  1  0
 12 19  1  0
 12 45  1  0
 13 18  1  0
 13 14  2  0
 14 15  1  0
 14 46  1  0
 15 16  2  0
 15 47  1  0
 16 17  1  0
 16 48  1  0
 17 18  2  0
 17 49  1  0
 18 50  1  0
 19 24  1  0
 19 20  2  0
 20 21  1  0
 20 51  1  0
 21 22  2  0
 21 52  1  0
 22 23  1  0
 22 53  1  0
 23 24  2  0
 23 54  1  0
 24 55  1  0
 25 26  1  0
 25 56  1  0
 25 57  1  0
 26 58  1  0
 26 59  1  0
 27 28  1  0
 28 29  1  0
 28 60  1  0
 28 61  1  0
 29 30  1  0
 30 31  1  0
 30 62  1  0
 30 63  1  0
 31 32  2  0
 31 64  1  0
 32 33  1  0
 32 65  1  0
 33 34  1  0
 33 66  1  0
 33 67  1  0
M  CHG  1  10   1
M  END
>  <DOCK_score>  (1) 
-57.198463

>  <SMILES>  (1) 
Cc1cccc(N2CC[NH+](C(c3ccccc3)c3ccccc3)CC2)c1CSCC=CCF

$$$$
