Cc1c(N2C=C([C@H](Nc3[nH]cc(-c4cccnc4)[nH+]3)c3ccccc3)CCC2)ccc2c1CCC2
     RDKit          3D

 67 72  0  0  1  0  0  0  0  0999 V2000
  132.9780  136.6956  162.6633 C   0  0  0  0  0  0  0  0  0  0  0  0
  133.7669  137.7192  161.8883 C   0  0  0  0  0  0  0  0  0  0  0  0
  133.1786  138.3838  160.8206 C   0  0  0  0  0  0  0  0  0  0  0  0
  131.8570  138.1050  160.4638 N   0  0  0  0  0  0  0  0  0  0  0  0
  131.4837  136.8206  160.0870 C   0  0  0  0  0  0  0  0  0  0  0  0
  130.2247  136.4662  159.9904 C   0  0  0  0  0  0  0  0  0  0  0  0
  129.9039  135.0523  159.5791 C   0  0  2  0  0  0  0  0  0  0  0  0
  130.3333  134.3576  160.3010 H   0  0  0  0  0  0  0  0  0  0  0  0
  130.4684  134.7895  158.2530 N   0  0  0  0  0  0  0  0  0  0  0  0
  130.3010  133.5482  157.6631 C   0  0  0  0  0  0  0  0  0  0  0  0
  129.6410  132.4922  158.2120 N   0  0  0  0  0  0  0  0  0  0  0  0
  129.2066  132.4740  159.0792 H   0  0  0  0  0  0  0  0  0  0  0  0
  129.7009  131.4577  157.3101 C   0  0  0  0  0  0  0  0  0  0  0  0
  130.4021  131.9083  156.2405 C   0  0  0  0  0  0  0  0  0  0  0  0
  130.7238  131.1325  155.0179 C   0  0  0  0  0  0  0  0  0  0  0  0
  130.2776  131.5636  153.7651 C   0  0  0  0  0  0  0  0  0  0  0  0
  130.6084  130.8068  152.6544 C   0  0  0  0  0  0  0  0  0  0  0  0
  131.3540  129.6534  152.8191 C   0  0  0  0  0  0  0  0  0  0  0  0
  131.7567  129.2690  154.0147 N   0  0  0  0  0  0  0  0  0  0  0  0
  131.4708  129.9591  155.0999 C   0  0  0  0  0  0  0  0  0  0  0  0
  130.7571  133.1946  156.4864 N   0  0  0  0  0  0  0  0  0  0  0  0
  131.2671  133.7616  155.8870 H   0  0  0  0  0  0  0  0  0  0  0  0
  128.4087  134.8692  159.5340 C   0  0  0  0  0  0  0  0  0  0  0  0
  127.7302  134.4440  160.6608 C   0  0  0  0  0  0  0  0  0  0  0  0
  126.3581  134.2803  160.6207 C   0  0  0  0  0  0  0  0  0  0  0  0
  125.6659  134.5325  159.4510 C   0  0  0  0  0  0  0  0  0  0  0  0
  126.3450  134.9531  158.3229 C   0  0  0  0  0  0  0  0  0  0  0  0
  127.7165  135.1210  158.3642 C   0  0  0  0  0  0  0  0  0  0  0  0
  129.0883  137.4056  160.2773 C   0  0  0  0  0  0  0  0  0  0  0  0
  129.5725  138.5804  161.1303 C   0  0  0  0  0  0  0  0  0  0  0  0
  130.8375  139.1643  160.4851 C   0  0  0  0  0  0  0  0  0  0  0  0
  133.9066  139.3311  160.1121 C   0  0  0  0  0  0  0  0  0  0  0  0
  135.2119  139.6024  160.4691 C   0  0  0  0  0  0  0  0  0  0  0  0
  135.7997  138.9344  161.5309 C   0  0  0  0  0  0  0  0  0  0  0  0
  135.0773  137.9904  162.2385 C   0  0  0  0  0  0  0  0  0  0  0  0
  135.9372  137.4091  163.3405 C   0  0  0  0  0  0  0  0  0  0  0  0
  137.3867  137.7755  162.9577 C   0  0  0  0  0  0  0  0  0  0  0  0
  137.1936  139.0507  162.1102 C   0  0  0  0  0  0  0  0  0  0  0  0
  133.1150  135.7131  162.2118 H   0  0  0  0  0  0  0  0  0  0  0  0
  133.3274  136.6730  163.6955 H   0  0  0  0  0  0  0  0  0  0  0  0
  131.9208  136.9604  162.6433 H   0  0  0  0  0  0  0  0  0  0  0  0
  132.2518  136.0949  159.8640 H   0  0  0  0  0  0  0  0  0  0  0  0
  130.9559  135.4864  157.7866 H   0  0  0  0  0  0  0  0  0  0  0  0
  129.2746  130.4729  157.4315 H   0  0  0  0  0  0  0  0  0  0  0  0
  129.6930  132.4663  153.6661 H   0  0  0  0  0  0  0  0  0  0  0  0
  130.2839  131.1112  151.6703 H   0  0  0  0  0  0  0  0  0  0  0  0
  131.6106  129.0585  151.9550 H   0  0  0  0  0  0  0  0  0  0  0  0
  131.8188  129.6124  156.0617 H   0  0  0  0  0  0  0  0  0  0  0  0
  128.2715  134.2431  161.5734 H   0  0  0  0  0  0  0  0  0  0  0  0
  125.8275  133.9520  161.5022 H   0  0  0  0  0  0  0  0  0  0  0  0
  124.5944  134.4013  159.4187 H   0  0  0  0  0  0  0  0  0  0  0  0
  125.8042  135.1502  157.4091 H   0  0  0  0  0  0  0  0  0  0  0  0
  128.2472  135.4493  157.4827 H   0  0  0  0  0  0  0  0  0  0  0  0
  128.6868  137.7838  159.3373 H   0  0  0  0  0  0  0  0  0  0  0  0
  128.3040  136.8703  160.8124 H   0  0  0  0  0  0  0  0  0  0  0  0
  128.7972  139.3454  161.1735 H   0  0  0  0  0  0  0  0  0  0  0  0
  129.7996  138.2320  162.1379 H   0  0  0  0  0  0  0  0  0  0  0  0
  130.6182  139.4867  159.4673 H   0  0  0  0  0  0  0  0  0  0  0  0
  131.1954  140.0099  161.0726 H   0  0  0  0  0  0  0  0  0  0  0  0
  133.4525  139.8540  159.2834 H   0  0  0  0  0  0  0  0  0  0  0  0
  135.7778  140.3387  159.9179 H   0  0  0  0  0  0  0  0  0  0  0  0
  135.8189  136.3263  163.3812 H   0  0  0  0  0  0  0  0  0  0  0  0
  135.6756  137.8537  164.3008 H   0  0  0  0  0  0  0  0  0  0  0  0
  137.8433  136.9823  162.3657 H   0  0  0  0  0  0  0  0  0  0  0  0
  137.9834  137.9867  163.8451 H   0  0  0  0  0  0  0  0  0  0  0  0
  137.9333  139.0890  161.3105 H   0  0  0  0  0  0  0  0  0  0  0  0
  137.2695  139.9388  162.7376 H   0  0  0  0  0  0  0  0  0  0  0  0
  1  2  1  0
  1 39  1  0
  1 40  1  0
  1 41  1  0
  2 35  2  0
  2  3  1  0
  3  4  1  0
  3 32  2  0
  4 31  1  0
  4  5  1  0
  5  6  2  0
  5 42  1  0
  6  7  1  0
  6 29  1  0
  7  8  1  1
  7  9  1  0
  7 23  1  0
  9 43  1  0
 10  9  1  0
 10 21  2  0
 10 11  1  0
 11 12  1  0
 11 13  1  0
 13 14  2  0
 13 44  1  0
 14 15  1  0
 14 21  1  0
 15 20  1  0
 15 16  2  0
 16 17  1  0
 16 45  1  0
 17 18  2  0
 17 46  1  0
 18 19  1  0
 18 47  1  0
 19 20  2  0
 20 48  1  0
 21 22  1  0
 23 28  1  0
 23 24  2  0
 24 25  1  0
 24 49  1  0
 25 26  2  0
 25 50  1  0
 26 27  1  0
 26 51  1  0
 27 28  2  0
 27 52  1  0
 28 53  1  0
 29 30  1  0
 29 54  1  0
 29 55  1  0
 30 31  1  0
 30 56  1  0
 30 57  1  0
 31 58  1  0
 31 59  1  0
 32 33  1  0
 32 60  1  0
 33 34  2  0
 33 61  1  0
 34 38  1  0
 34 35  1  0
 35 36  1  0
 36 37  1  0
 36 62  1  0
 36 63  1  0
 37 38  1  0
 37 64  1  0
 37 65  1  0
 38 66  1  0
 38 67  1  0
M  CHG  1  21   1
M  END
>  <DOCK_score>  (1) 
-64.546951

>  <SMILES>  (1) 
Cc1c(N2C=C([C@H](Nc3[nH]cc(-c4cccnc4)[nH+]3)c3ccccc3)CCC2)ccc2c1CCC2

$$$$
