Cl[C@H](CNc1[nH]cc(-c2ccccc2)[nH+]1)Sc1ccc(-c2ccccc2)cc1
     RDKit          3D

 49 52  0  0  1  0  0  0  0  0999 V2000
  130.5577  133.1079  161.3951 Cl  0  0  0  0  0  0  0  0  0  0  0  0
  130.5644  134.9035  161.2323 C   0  0  2  0  0  0  0  0  0  0  0  0
  130.2771  135.3555  162.1816 H   0  0  0  0  0  0  0  0  0  0  0  0
  129.5697  135.3208  160.1472 C   0  0  0  0  0  0  0  0  0  0  0  0
  130.1798  135.1353  158.8282 N   0  0  0  0  0  0  0  0  0  0  0  0
  130.0414  133.9278  158.1652 C   0  0  0  0  0  0  0  0  0  0  0  0
  129.3714  132.8392  158.6324 N   0  0  0  0  0  0  0  0  0  0  0  0
  128.9088  132.7704  159.4822 H   0  0  0  0  0  0  0  0  0  0  0  0
  129.4686  131.8570  157.6770 C   0  0  0  0  0  0  0  0  0  0  0  0
  130.2017  132.3701  156.6581 C   0  0  0  0  0  0  0  0  0  0  0  0
  130.5691  131.6653  155.4058 C   0  0  0  0  0  0  0  0  0  0  0  0
  130.1581  132.1696  154.1730 C   0  0  0  0  0  0  0  0  0  0  0  0
  130.5083  131.5130  153.0106 C   0  0  0  0  0  0  0  0  0  0  0  0
  131.2550  130.3498  153.0683 C   0  0  0  0  0  0  0  0  0  0  0  0
  131.6607  129.8418  154.2891 C   0  0  0  0  0  0  0  0  0  0  0  0
  131.3216  130.4933  155.4575 C   0  0  0  0  0  0  0  0  0  0  0  0
  130.5389  133.6426  156.9866 N   0  0  0  0  0  0  0  0  0  0  0  0
  131.0641  134.2451  156.4370 H   0  0  0  0  0  0  0  0  0  0  0  0
  132.2282  135.4631  160.7749 S   0  0  0  0  0  0  0  0  0  0  0  0
  133.0874  135.4498  162.3132 C   0  0  0  0  0  0  0  0  0  0  0  0
  132.6404  136.2421  163.3653 C   0  0  0  0  0  0  0  0  0  0  0  0
  133.3084  136.2294  164.5708 C   0  0  0  0  0  0  0  0  0  0  0  0
  134.4391  135.4298  164.7318 C   0  0  0  0  0  0  0  0  0  0  0  0
  135.1631  135.4195  166.0264 C   0  0  0  0  0  0  0  0  0  0  0  0
  136.5348  135.1750  166.0588 C   0  0  0  0  0  0  0  0  0  0  0  0
  137.2041  135.1714  167.2658 C   0  0  0  0  0  0  0  0  0  0  0  0
  136.5143  135.3999  168.4428 C   0  0  0  0  0  0  0  0  0  0  0  0
  135.1518  135.6377  168.4172 C   0  0  0  0  0  0  0  0  0  0  0  0
  134.4731  135.6486  167.2155 C   0  0  0  0  0  0  0  0  0  0  0  0
  134.8890  134.6403  163.6743 C   0  0  0  0  0  0  0  0  0  0  0  0
  134.2153  134.6515  162.4720 C   0  0  0  0  0  0  0  0  0  0  0  0
  128.6719  134.7073  160.2217 H   0  0  0  0  0  0  0  0  0  0  0  0
  129.3052  136.3698  160.2808 H   0  0  0  0  0  0  0  0  0  0  0  0
  130.6806  135.8584  158.4193 H   0  0  0  0  0  0  0  0  0  0  0  0
  129.0461  130.8644  157.7294 H   0  0  0  0  0  0  0  0  0  0  0  0
  129.5710  133.0749  154.1273 H   0  0  0  0  0  0  0  0  0  0  0  0
  130.1948  131.9055  152.0546 H   0  0  0  0  0  0  0  0  0  0  0  0
  131.5226  129.8365  152.1564 H   0  0  0  0  0  0  0  0  0  0  0  0
  132.2439  128.9338  154.3280 H   0  0  0  0  0  0  0  0  0  0  0  0
  131.6392  130.0960  156.4102 H   0  0  0  0  0  0  0  0  0  0  0  0
  131.7668  136.8644  163.2390 H   0  0  0  0  0  0  0  0  0  0  0  0
  132.9583  136.8412  165.3890 H   0  0  0  0  0  0  0  0  0  0  0  0
  137.0736  134.9924  165.1408 H   0  0  0  0  0  0  0  0  0  0  0  0
  138.2678  134.9858  167.2917 H   0  0  0  0  0  0  0  0  0  0  0  0
  137.0414  135.3919  169.3854 H   0  0  0  0  0  0  0  0  0  0  0  0
  134.6183  135.8150  169.3392 H   0  0  0  0  0  0  0  0  0  0  0  0
  133.4093  135.8336  167.1967 H   0  0  0  0  0  0  0  0  0  0  0  0
  135.7645  134.0201  163.7973 H   0  0  0  0  0  0  0  0  0  0  0  0
  134.5637  134.0404  161.6524 H   0  0  0  0  0  0  0  0  0  0  0  0
  1  2  1  0
  2  3  1  1
  2  4  1  0
  2 19  1  0
  4  5  1  0
  4 32  1  0
  4 33  1  0
  5 34  1  0
  6  5  1  0
  6 17  2  0
  6  7  1  0
  7  8  1  0
  7  9  1  0
  9 10  2  0
  9 35  1  0
 10 11  1  0
 10 17  1  0
 11 16  1  0
 11 12  2  0
 12 13  1  0
 12 36  1  0
 13 14  2  0
 13 37  1  0
 14 15  1  0
 14 38  1  0
 15 16  2  0
 15 39  1  0
 16 40  1  0
 17 18  1  0
 19 20  1  0
 20 31  1  0
 20 21  2  0
 21 22  1  0
 21 41  1  0
 22 23  2  0
 22 42  1  0
 23 24  1  0
 23 30  1  0
 24 29  1  0
 24 25  2  0
 25 26  1  0
 25 43  1  0
 26 27  2  0
 26 44  1  0
 27 28  1  0
 27 45  1  0
 28 29  2  0
 28 46  1  0
 29 47  1  0
 30 31  2  0
 30 48  1  0
 31 49  1  0
M  CHG  1  17   1
M  END
>  <DOCK_score>  (1) 
-57.124805

>  <SMILES>  (1) 
Cl[C@H](CNc1[nH]cc(-c2ccccc2)[nH+]1)Sc1ccc(-c2ccccc2)cc1

$$$$
