Cc1ccc(-c2ccncc2)cc1NC(=O)[C@@H](Cc1cnn(C)c1)Nc1[nH]c2ccccc2[nH+]1
     RDKit          3D

 60 64  0  0  1  0  0  0  0  0999 V2000
  134.9758  138.9023  158.4171 C   0  0  0  0  0  0  0  0  0  0  0  0
  135.1232  139.2899  159.8661 C   0  0  0  0  0  0  0  0  0  0  0  0
  136.2179  140.0284  160.2741 C   0  0  0  0  0  0  0  0  0  0  0  0
  136.3592  140.3858  161.5999 C   0  0  0  0  0  0  0  0  0  0  0  0
  135.3961  140.0024  162.5320 C   0  0  0  0  0  0  0  0  0  0  0  0
  135.5468  140.3854  163.9576 C   0  0  0  0  0  0  0  0  0  0  0  0
  135.0317  139.5785  164.9758 C   0  0  0  0  0  0  0  0  0  0  0  0
  135.1937  139.9722  166.2884 C   0  0  0  0  0  0  0  0  0  0  0  0
  135.8192  141.0947  166.5863 N   0  0  0  0  0  0  0  0  0  0  0  0
  136.3247  141.8816  165.6559 C   0  0  0  0  0  0  0  0  0  0  0  0
  136.2073  141.5629  164.3186 C   0  0  0  0  0  0  0  0  0  0  0  0
  134.2957  139.2544  162.1227 C   0  0  0  0  0  0  0  0  0  0  0  0
  134.1585  138.9034  160.7881 C   0  0  0  0  0  0  0  0  0  0  0  0
  133.0513  138.1560  160.3710 N   0  0  0  0  0  0  0  0  0  0  0  0
  132.4642  137.2900  161.2206 C   0  0  0  0  0  0  0  0  0  0  0  0
  132.8955  137.1582  162.3465 O   0  0  0  0  0  0  0  0  0  0  0  0
  131.2718  136.4851  160.7715 C   0  0  1  0  0  0  0  0  0  0  0  0
  130.9370  135.8454  161.5881 H   0  0  0  0  0  0  0  0  0  0  0  0
  130.1399  137.4321  160.3685 C   0  0  0  0  0  0  0  0  0  0  0  0
  128.9475  136.6274  159.9196 C   0  0  0  0  0  0  0  0  0  0  0  0
  128.6863  136.2023  158.6130 C   0  0  0  0  0  0  0  0  0  0  0  0
  127.5646  135.5285  158.6188 N   0  0  0  0  0  0  0  0  0  0  0  0
  127.0707  135.5125  159.9296 N   0  0  0  0  0  0  0  0  0  0  0  0
  125.8319  134.8703  160.3759 C   0  0  0  0  0  0  0  0  0  0  0  0
  127.9372  136.1933  160.7085 C   0  0  0  0  0  0  0  0  0  0  0  0
  131.6468  135.6558  159.6236 N   0  0  0  0  0  0  0  0  0  0  0  0
  131.5424  134.2870  159.7011 C   0  0  0  0  0  0  0  0  0  0  0  0
  131.8494  133.4423  158.7191 N   0  0  0  0  0  0  0  0  0  0  0  0
  132.1794  133.6893  157.8410 H   0  0  0  0  0  0  0  0  0  0  0  0
  131.6232  132.1647  159.1597 C   0  0  0  0  0  0  0  0  0  0  0  0
  131.7650  130.9071  158.5804 C   0  0  0  0  0  0  0  0  0  0  0  0
  131.4372  129.7798  159.3022 C   0  0  0  0  0  0  0  0  0  0  0  0
  130.9666  129.8891  160.6025 C   0  0  0  0  0  0  0  0  0  0  0  0
  130.8202  131.1266  161.1909 C   0  0  0  0  0  0  0  0  0  0  0  0
  131.1467  132.2755  160.4761 C   0  0  0  0  0  0  0  0  0  0  0  0
  131.1143  133.6140  160.7668 N   0  0  0  0  0  0  0  0  0  0  0  0
  130.8275  134.0051  161.6068 H   0  0  0  0  0  0  0  0  0  0  0  0
  135.4594  137.9403  158.2474 H   0  0  0  0  0  0  0  0  0  0  0  0
  133.9176  138.8262  158.1673 H   0  0  0  0  0  0  0  0  0  0  0  0
  135.4439  139.6601  157.7890 H   0  0  0  0  0  0  0  0  0  0  0  0
  136.9651  140.3265  159.5535 H   0  0  0  0  0  0  0  0  0  0  0  0
  137.2163  140.9624  161.9152 H   0  0  0  0  0  0  0  0  0  0  0  0
  134.5143  138.6605  164.7388 H   0  0  0  0  0  0  0  0  0  0  0  0
  134.7991  139.3551  167.0822 H   0  0  0  0  0  0  0  0  0  0  0  0
  136.8330  142.7896  165.9447 H   0  0  0  0  0  0  0  0  0  0  0  0
  136.6200  142.2137  163.5619 H   0  0  0  0  0  0  0  0  0  0  0  0
  133.5490  138.9515  162.8419 H   0  0  0  0  0  0  0  0  0  0  0  0
  132.7063  138.2613  159.4706 H   0  0  0  0  0  0  0  0  0  0  0  0
  129.8609  138.0493  161.2225 H   0  0  0  0  0  0  0  0  0  0  0  0
  130.4747  138.0719  159.5519 H   0  0  0  0  0  0  0  0  0  0  0  0
  129.3053  136.3941  157.7490 H   0  0  0  0  0  0  0  0  0  0  0  0
  125.0078  135.5800  160.3022 H   0  0  0  0  0  0  0  0  0  0  0  0
  125.6238  134.0052  159.7464 H   0  0  0  0  0  0  0  0  0  0  0  0
  125.9424  134.5482  161.4114 H   0  0  0  0  0  0  0  0  0  0  0  0
  127.8418  136.3614  161.7710 H   0  0  0  0  0  0  0  0  0  0  0  0
  131.9686  136.0722  158.8088 H   0  0  0  0  0  0  0  0  0  0  0  0
  132.1313  130.8150  157.5687 H   0  0  0  0  0  0  0  0  0  0  0  0
  131.5479  128.8043  158.8522 H   0  0  0  0  0  0  0  0  0  0  0  0
  130.7134  128.9981  161.1577 H   0  0  0  0  0  0  0  0  0  0  0  0
  130.4535  131.2048  162.2037 H   0  0  0  0  0  0  0  0  0  0  0  0
  1  2  1  0
  1 38  1  0
  1 39  1  0
  1 40  1  0
  2 13  2  0
  2  3  1  0
  3  4  2  0
  3 41  1  0
  4  5  1  0
  4 42  1  0
  5  6  1  0
  5 12  2  0
  6 11  1  0
  6  7  2  0
  7  8  1  0
  7 43  1  0
  8  9  2  0
  8 44  1  0
  9 10  1  0
 10 11  2  0
 10 45  1  0
 11 46  1  0
 12 13  1  0
 12 47  1  0
 13 14  1  0
 14 15  1  0
 14 48  1  0
 15 16  2  0
 15 17  1  0
 17 18  1  1
 17 19  1  0
 17 26  1  0
 19 20  1  0
 19 49  1  0
 19 50  1  0
 20 25  2  0
 20 21  1  0
 21 22  2  0
 21 51  1  0
 22 23  1  0
 23 24  1  0
 23 25  1  0
 24 52  1  0
 24 53  1  0
 24 54  1  0
 25 55  1  0
 26 27  1  0
 26 56  1  0
 27 36  1  0
 27 28  2  0
 28 29  1  0
 28 30  1  0
 30 35  2  0
 30 31  1  0
 31 32  2  0
 31 57  1  0
 32 33  1  0
 32 58  1  0
 33 34  2  0
 33 59  1  0
 34 35  1  0
 34 60  1  0
 35 36  1  0
 36 37  1  0
M  CHG  1  28   1
M  END
>  <DOCK_score>  (1) 
-62.906685

>  <SMILES>  (1) 
Cc1ccc(-c2ccncc2)cc1NC(=O)[C@@H](Cc1cnn(C)c1)Nc1[nH]c2ccccc2[nH+]1

$$$$
