CCC(Nc1[nH]c2ccccc2[nH+]1)[C@@](C)(O)c1ccccc1CN(C)C(=O)C(=O)N1CC=CC1
     RDKit          3D

 66 69  0  0  1  0  0  0  0  0999 V2000
  127.8884  135.8297  159.3473 C   0  0  0  0  0  0  0  0  0  0  0  0
  129.0251  136.4544  160.1588 C   0  0  0  0  0  0  0  0  0  0  0  0
  130.1954  135.4719  160.2375 C   0  0  1  0  0  0  0  0  0  0  0  0
  130.6702  135.1686  158.8851 N   0  0  0  0  0  0  0  0  0  0  0  0
  130.6477  133.8739  158.4229 C   0  0  0  0  0  0  0  0  0  0  0  0
  130.2219  132.8228  159.1200 N   0  0  0  0  0  0  0  0  0  0  0  0
  129.8808  132.8448  160.0277 H   0  0  0  0  0  0  0  0  0  0  0  0
  130.3444  131.7050  158.3371 C   0  0  0  0  0  0  0  0  0  0  0  0
  130.0605  130.3565  158.5328 C   0  0  0  0  0  0  0  0  0  0  0  0
  130.3098  129.4508  157.5244 C   0  0  0  0  0  0  0  0  0  0  0  0
  130.8420  129.8734  156.3151 C   0  0  0  0  0  0  0  0  0  0  0  0
  131.1288  131.2047  156.1049 C   0  0  0  0  0  0  0  0  0  0  0  0
  130.8832  132.1328  157.1127 C   0  0  0  0  0  0  0  0  0  0  0  0
  131.0539  133.4884  157.2153 N   0  0  0  0  0  0  0  0  0  0  0  0
  131.4109  134.0688  156.5249 H   0  0  0  0  0  0  0  0  0  0  0  0
  131.3322  136.0967  161.0489 C   0  0  1  0  0  0  0  0  0  0  0  0
  132.5024  135.1141  161.1276 C   0  0  0  0  0  0  0  0  0  0  0  0
  131.7639  137.3018  160.4140 O   0  0  0  0  0  0  0  0  0  0  0  0
  130.8438  136.4087  162.4399 C   0  0  0  0  0  0  0  0  0  0  0  0
  129.8534  135.6341  163.0150 C   0  0  0  0  0  0  0  0  0  0  0  0
  129.4059  135.9200  164.2909 C   0  0  0  0  0  0  0  0  0  0  0  0
  129.9481  136.9811  164.9922 C   0  0  0  0  0  0  0  0  0  0  0  0
  130.9382  137.7556  164.4174 C   0  0  0  0  0  0  0  0  0  0  0  0
  131.3899  137.4660  163.1432 C   0  0  0  0  0  0  0  0  0  0  0  0
  132.4737  138.3066  162.5188 C   0  0  0  0  0  0  0  0  0  0  0  0
  133.5424  138.5298  163.4956 N   0  0  0  0  0  0  0  0  0  0  0  0
  133.4914  139.6935  164.3842 C   0  0  0  0  0  0  0  0  0  0  0  0
  134.5728  137.6647  163.5765 C   0  0  0  0  0  0  0  0  0  0  0  0
  134.6151  136.7010  162.8404 O   0  0  0  0  0  0  0  0  0  0  0  0
  135.6631  137.8923  164.5730 C   0  0  0  0  0  0  0  0  0  0  0  0
  135.6207  138.8561  165.3092 O   0  0  0  0  0  0  0  0  0  0  0  0
  136.6933  137.0273  164.6541 N   0  0  0  0  0  0  0  0  0  0  0  0
  136.9010  135.8133  163.8517 C   0  0  0  0  0  0  0  0  0  0  0  0
  138.1922  135.1914  164.3142 C   0  0  0  0  0  0  0  0  0  0  0  0
  138.7154  135.9043  165.2725 C   0  0  0  0  0  0  0  0  0  0  0  0
  137.8426  137.0954  165.5677 C   0  0  0  0  0  0  0  0  0  0  0  0
  128.2416  135.6040  158.3412 H   0  0  0  0  0  0  0  0  0  0  0  0
  127.5589  134.9104  159.8315 H   0  0  0  0  0  0  0  0  0  0  0  0
  127.0547  136.5297  159.2913 H   0  0  0  0  0  0  0  0  0  0  0  0
  129.3545  137.3738  159.6745 H   0  0  0  0  0  0  0  0  0  0  0  0
  128.6719  136.6801  161.1649 H   0  0  0  0  0  0  0  0  0  0  0  0
  129.8661  134.5526  160.7216 H   0  0  0  0  0  0  0  0  0  0  0  0
  131.0004  135.8811  158.3158 H   0  0  0  0  0  0  0  0  0  0  0  0
  129.6457  130.0210  159.4718 H   0  0  0  0  0  0  0  0  0  0  0  0
  130.0890  128.4047  157.6768 H   0  0  0  0  0  0  0  0  0  0  0  0
  131.0325  129.1538  155.5326 H   0  0  0  0  0  0  0  0  0  0  0  0
  131.5428  131.5271  155.1609 H   0  0  0  0  0  0  0  0  0  0  0  0
  133.1339  135.2300  160.2469 H   0  0  0  0  0  0  0  0  0  0  0  0
  133.0880  135.3177  162.0241 H   0  0  0  0  0  0  0  0  0  0  0  0
  132.1187  134.0947  161.1680 H   0  0  0  0  0  0  0  0  0  0  0  0
  132.0919  137.1762  159.5132 H   0  0  0  0  0  0  0  0  0  0  0  0
  129.4300  134.8054  162.4672 H   0  0  0  0  0  0  0  0  0  0  0  0
  128.6323  135.3149  164.7401 H   0  0  0  0  0  0  0  0  0  0  0  0
  129.5978  137.2050  165.9890 H   0  0  0  0  0  0  0  0  0  0  0  0
  131.3615  138.5846  164.9650 H   0  0  0  0  0  0  0  0  0  0  0  0
  132.8787  137.7896  161.6489 H   0  0  0  0  0  0  0  0  0  0  0  0
  132.0573  139.2656  162.2102 H   0  0  0  0  0  0  0  0  0  0  0  0
  133.0523  139.4026  165.3386 H   0  0  0  0  0  0  0  0  0  0  0  0
  134.5011  140.0697  164.5484 H   0  0  0  0  0  0  0  0  0  0  0  0
  132.8828  140.4734  163.9269 H   0  0  0  0  0  0  0  0  0  0  0  0
  136.0755  135.1190  164.0087 H   0  0  0  0  0  0  0  0  0  0  0  0
  136.9742  136.0742  162.7959 H   0  0  0  0  0  0  0  0  0  0  0  0
  138.6206  134.2848  163.9131 H   0  0  0  0  0  0  0  0  0  0  0  0
  139.6399  135.6737  165.7808 H   0  0  0  0  0  0  0  0  0  0  0  0
  138.4002  138.0159  165.3947 H   0  0  0  0  0  0  0  0  0  0  0  0
  137.4979  137.0592  166.6011 H   0  0  0  0  0  0  0  0  0  0  0  0
  1  2  1  0
  1 37  1  0
  1 38  1  0
  1 39  1  0
  2  3  1  0
  2 40  1  0
  2 41  1  0
  3  4  1  0
  3 16  1  0
  3 42  1  1
  4  5  1  0
  4 43  1  0
  5 14  1  0
  5  6  2  0
  6  7  1  0
  6  8  1  0
  8 13  2  0
  8  9  1  0
  9 10  2  0
  9 44  1  0
 10 11  1  0
 10 45  1  0
 11 12  2  0
 11 46  1  0
 12 13  1  0
 12 47  1  0
 13 14  1  0
 14 15  1  0
 16 17  1  0
 16 18  1  6
 16 19  1  0
 17 48  1  0
 17 49  1  0
 17 50  1  0
 18 51  1  0
 19 24  1  0
 19 20  2  0
 20 21  1  0
 20 52  1  0
 21 22  2  0
 21 53  1  0
 22 23  1  0
 22 54  1  0
 23 24  2  0
 23 55  1  0
 24 25  1  0
 25 26  1  0
 25 56  1  0
 25 57  1  0
 26 27  1  0
 26 28  1  0
 27 58  1  0
 27 59  1  0
 27 60  1  0
 28 29  2  0
 28 30  1  0
 30 31  2  0
 30 32  1  0
 32 36  1  0
 32 33  1  0
 33 34  1  0
 33 61  1  0
 33 62  1  0
 34 35  2  0
 34 63  1  0
 35 36  1  0
 35 64  1  0
 36 65  1  0
 36 66  1  0
M  CHG  1   6   1
M  END
>  <DOCK_score>  (1) 
-56.569386

>  <SMILES>  (1) 
CCC(Nc1[nH]c2ccccc2[nH+]1)[C@@](C)(O)c1ccccc1CN(C)C(=O)C(=O)N1CC=CC1

$$$$
