CC([NH2+][C@H](C)CC1=CCC=CC1CCO)C1COc2ccccc2O1
     RDKit          3D

 55 57  0  0  1  0  0  0  0  0999 V2000
  130.5258  138.1085  159.8704 C   0  0  0  0  0  0  0  0  0  0  0  0
  131.4135  137.2849  160.8056 C   0  0  1  0  0  0  0  0  0  0  0  0
  131.3662  135.8719  160.4069 N   0  0  0  0  0  0  0  0  0  0  0  0
  132.1689  135.3893  160.7824 H   0  0  0  0  0  0  0  0  0  0  0  0
  131.3748  135.8059  159.4001 H   0  0  0  0  0  0  0  0  0  0  0  0
  130.1378  135.2571  160.9275 C   0  0  2  0  0  0  0  0  0  0  0  0
  129.3098  135.9587  160.8273 H   0  0  0  0  0  0  0  0  0  0  0  0
  130.3305  134.9028  162.4034 C   0  0  0  0  0  0  0  0  0  0  0  0
  129.8278  133.9860  160.1342 C   0  0  0  0  0  0  0  0  0  0  0  0
  129.1683  134.3557  158.8306 C   0  0  0  0  0  0  0  0  0  0  0  0
  129.7480  134.0105  157.7214 C   0  0  0  0  0  0  0  0  0  0  0  0
  129.1742  134.3239  156.3726 C   0  0  0  0  0  0  0  0  0  0  0  0
  128.1821  135.4450  156.4545 C   0  0  0  0  0  0  0  0  0  0  0  0
  127.6052  135.7948  157.5636 C   0  0  0  0  0  0  0  0  0  0  0  0
  127.8743  135.1115  158.8706 C   0  0  1  0  0  0  0  0  0  0  0  0
  126.7335  134.1373  159.1715 C   0  0  0  0  0  0  0  0  0  0  0  0
  125.5262  134.9138  159.7010 C   0  0  0  0  0  0  0  0  0  0  0  0
  125.8912  135.6041  160.8977 O   0  0  0  0  0  0  0  0  0  0  0  0
  132.8547  137.7915  160.7182 C   0  0  1  0  0  0  0  0  0  0  0  0
  132.9149  139.2595  161.1619 C   0  0  0  0  0  0  0  0  0  0  0  0
  134.2759  139.6967  161.0812 O   0  0  0  0  0  0  0  0  0  0  0  0
  135.2178  138.8646  161.6035 C   0  0  0  0  0  0  0  0  0  0  0  0
  136.4825  139.3594  161.8857 C   0  0  0  0  0  0  0  0  0  0  0  0
  137.4501  138.5260  162.4140 C   0  0  0  0  0  0  0  0  0  0  0  0
  137.1611  137.1970  162.6613 C   0  0  0  0  0  0  0  0  0  0  0  0
  135.9028  136.6976  162.3832 C   0  0  0  0  0  0  0  0  0  0  0  0
  134.9265  137.5292  161.8548 C   0  0  0  0  0  0  0  0  0  0  0  0
  133.6900  137.0240  161.5916 O   0  0  0  0  0  0  0  0  0  0  0  0
  129.4993  137.7477  159.9326 H   0  0  0  0  0  0  0  0  0  0  0  0
  130.5609  139.1571  160.1663 H   0  0  0  0  0  0  0  0  0  0  0  0
  130.8850  138.0078  158.8462 H   0  0  0  0  0  0  0  0  0  0  0  0
  131.0544  137.3857  161.8297 H   0  0  0  0  0  0  0  0  0  0  0  0
  130.5513  135.8084  162.9685 H   0  0  0  0  0  0  0  0  0  0  0  0
  131.1586  134.2012  162.5034 H   0  0  0  0  0  0  0  0  0  0  0  0
  129.4189  134.4467  162.7896 H   0  0  0  0  0  0  0  0  0  0  0  0
  130.7544  133.4483  159.9329 H   0  0  0  0  0  0  0  0  0  0  0  0
  129.1575  133.3507  160.7132 H   0  0  0  0  0  0  0  0  0  0  0  0
  130.6819  133.4707  157.7728 H   0  0  0  0  0  0  0  0  0  0  0  0
  128.6794  133.4372  155.9762 H   0  0  0  0  0  0  0  0  0  0  0  0
  129.9835  134.6115  155.7014 H   0  0  0  0  0  0  0  0  0  0  0  0
  127.9370  135.9850  155.5519 H   0  0  0  0  0  0  0  0  0  0  0  0
  126.9011  136.6135  157.5439 H   0  0  0  0  0  0  0  0  0  0  0  0
  127.9222  135.8605  159.6611 H   0  0  0  0  0  0  0  0  0  0  0  0
  126.4551  133.6108  158.2587 H   0  0  0  0  0  0  0  0  0  0  0  0
  127.0596  133.4167  159.9217 H   0  0  0  0  0  0  0  0  0  0  0  0
  125.2002  135.6345  158.9509 H   0  0  0  0  0  0  0  0  0  0  0  0
  124.7135  134.2198  159.9153 H   0  0  0  0  0  0  0  0  0  0  0  0
  125.1725  136.1187  161.2898 H   0  0  0  0  0  0  0  0  0  0  0  0
  133.2141  137.7023  159.6931 H   0  0  0  0  0  0  0  0  0  0  0  0
  132.2938  139.8680  160.5046 H   0  0  0  0  0  0  0  0  0  0  0  0
  132.5600  139.3481  162.1886 H   0  0  0  0  0  0  0  0  0  0  0  0
  136.7109  140.3973  161.6930 H   0  0  0  0  0  0  0  0  0  0  0  0
  138.4340  138.9137  162.6333 H   0  0  0  0  0  0  0  0  0  0  0  0
  137.9197  136.5478  163.0728 H   0  0  0  0  0  0  0  0  0  0  0  0
  135.6795  135.6591  162.5777 H   0  0  0  0  0  0  0  0  0  0  0  0
  1  2  1  0
  1 29  1  0
  1 30  1  0
  1 31  1  0
  2  3  1  0
  2 19  1  0
  2 32  1  1
  3  4  1  0
  3  5  1  0
  3  6  1  0
  6  7  1  1
  6  8  1  0
  6  9  1  0
  8 33  1  0
  8 34  1  0
  8 35  1  0
  9 10  1  0
  9 36  1  0
  9 37  1  0
 10 15  1  0
 10 11  2  0
 11 12  1  0
 11 38  1  0
 12 13  1  0
 12 39  1  0
 12 40  1  0
 13 14  2  0
 13 41  1  0
 14 15  1  0
 14 42  1  0
 15 16  1  0
 15 43  1  1
 16 17  1  0
 16 44  1  0
 16 45  1  0
 17 18  1  0
 17 46  1  0
 17 47  1  0
 18 48  1  0
 19 28  1  0
 19 20  1  0
 19 49  1  6
 20 21  1  0
 20 50  1  0
 20 51  1  0
 21 22  1  0
 22 27  2  0
 22 23  1  0
 23 24  2  0
 23 52  1  0
 24 25  1  0
 24 53  1  0
 25 26  2  0
 25 54  1  0
 26 27  1  0
 26 55  1  0
 27 28  1  0
M  CHG  1   3   1
M  END
>  <DOCK_score>  (1) 
-41.526413

>  <SMILES>  (1) 
CC([NH2+][C@H](C)CC1=CCC=CC1CCO)C1COc2ccccc2O1

$$$$
