Nc1ccc(-c2c[nH]c(N[C@@H](/C=C/c3nc4ccccc4[nH]3)c3ccc(F)cc3)[nH+]2)cc1
     RDKit          3D

 54 58  0  0  1  0  0  0  0  0999 V2000
  131.4576  129.4073  150.6712 N   0  0  0  0  0  0  0  0  0  0  0  0
  131.1893  130.0413  151.8868 C   0  0  0  0  0  0  0  0  0  0  0  0
  131.8166  129.6078  153.0488 C   0  0  0  0  0  0  0  0  0  0  0  0
  131.5529  130.2320  154.2498 C   0  0  0  0  0  0  0  0  0  0  0  0
  130.6568  131.2987  154.2978 C   0  0  0  0  0  0  0  0  0  0  0  0
  130.3712  131.9713  155.5889 C   0  0  0  0  0  0  0  0  0  0  0  0
  129.3903  131.6366  156.4632 C   0  0  0  0  0  0  0  0  0  0  0  0
  129.4814  132.5125  157.5189 N   0  0  0  0  0  0  0  0  0  0  0  0
  128.9131  132.5260  158.3049 H   0  0  0  0  0  0  0  0  0  0  0  0
  130.5160  133.3566  157.2575 C   0  0  0  0  0  0  0  0  0  0  0  0
  130.9400  134.3901  158.0755 N   0  0  0  0  0  0  0  0  0  0  0  0
  130.2558  134.6471  159.3452 C   0  0  1  0  0  0  0  0  0  0  0  0
  130.3242  133.7636  159.9801 H   0  0  0  0  0  0  0  0  0  0  0  0
  130.9066  135.8158  160.0389 C   0  0  0  0  0  0  0  0  0  0  0  0
  131.9155  135.6119  160.8794 C   0  0  0  0  0  0  0  0  0  0  0  0
  132.5514  136.7538  161.5571 C   0  0  0  0  0  0  0  0  0  0  0  0
  133.1482  137.7540  160.9527 N   0  0  0  0  0  0  0  0  0  0  0  0
  133.6258  138.6235  161.8750 C   0  0  0  0  0  0  0  0  0  0  0  0
  134.3281  139.8302  161.7845 C   0  0  0  0  0  0  0  0  0  0  0  0
  134.6831  140.4980  162.9218 C   0  0  0  0  0  0  0  0  0  0  0  0
  134.3544  139.9923  164.1718 C   0  0  0  0  0  0  0  0  0  0  0  0
  133.6622  138.8051  164.2859 C   0  0  0  0  0  0  0  0  0  0  0  0
  133.2927  138.1113  163.1420 C   0  0  0  0  0  0  0  0  0  0  0  0
  132.6146  136.9297  162.9147 N   0  0  0  0  0  0  0  0  0  0  0  0
  132.2505  136.3358  163.5898 H   0  0  0  0  0  0  0  0  0  0  0  0
  128.8066  134.9639  159.0797 C   0  0  0  0  0  0  0  0  0  0  0  0
  127.8452  134.6382  160.0182 C   0  0  0  0  0  0  0  0  0  0  0  0
  126.5165  134.9326  159.7778 C   0  0  0  0  0  0  0  0  0  0  0  0
  126.1471  135.5444  158.5919 C   0  0  0  0  0  0  0  0  0  0  0  0
  124.8479  135.8285  158.3539 F   0  0  0  0  0  0  0  0  0  0  0  0
  127.1103  135.8653  157.6504 C   0  0  0  0  0  0  0  0  0  0  0  0
  128.4390  135.5748  157.8953 C   0  0  0  0  0  0  0  0  0  0  0  0
  131.0415  133.0338  156.1009 N   0  0  0  0  0  0  0  0  0  0  0  0
  131.7915  133.4818  155.6792 H   0  0  0  0  0  0  0  0  0  0  0  0
  130.0251  131.7286  153.1319 C   0  0  0  0  0  0  0  0  0  0  0  0
  130.2958  131.1049  151.9322 C   0  0  0  0  0  0  0  0  0  0  0  0
  132.0812  128.6651  150.6385 H   0  0  0  0  0  0  0  0  0  0  0  0
  131.0202  129.7092  149.8597 H   0  0  0  0  0  0  0  0  0  0  0  0
  132.5108  128.7815  153.0110 H   0  0  0  0  0  0  0  0  0  0  0  0
  132.0406  129.8948  155.1525 H   0  0  0  0  0  0  0  0  0  0  0  0
  128.6744  130.8357  156.3513 H   0  0  0  0  0  0  0  0  0  0  0  0
  131.6900  134.9439  157.8080 H   0  0  0  0  0  0  0  0  0  0  0  0
  130.5532  136.8192  159.8529 H   0  0  0  0  0  0  0  0  0  0  0  0
  132.2690  134.6084  161.0655 H   0  0  0  0  0  0  0  0  0  0  0  0
  134.5888  140.2332  160.8171 H   0  0  0  0  0  0  0  0  0  0  0  0
  135.2248  141.4294  162.8478 H   0  0  0  0  0  0  0  0  0  0  0  0
  134.6427  140.5325  165.0615 H   0  0  0  0  0  0  0  0  0  0  0  0
  133.4093  138.4164  165.2613 H   0  0  0  0  0  0  0  0  0  0  0  0
  128.1331  134.1572  160.9414 H   0  0  0  0  0  0  0  0  0  0  0  0
  125.7661  134.6818  160.5129 H   0  0  0  0  0  0  0  0  0  0  0  0
  126.8233  136.3423  156.7249 H   0  0  0  0  0  0  0  0  0  0  0  0
  129.1904  135.8254  157.1611 H   0  0  0  0  0  0  0  0  0  0  0  0
  129.3273  132.5522  153.1675 H   0  0  0  0  0  0  0  0  0  0  0  0
  129.8097  131.4404  151.0280 H   0  0  0  0  0  0  0  0  0  0  0  0
  1  2  1  0
  1 37  1  0
  1 38  1  0
  2 36  2  0
  2  3  1  0
  3  4  2  0
  3 39  1  0
  4  5  1  0
  4 40  1  0
  5  6  1  0
  5 35  2  0
  6 33  1  0
  6  7  2  0
  7  8  1  0
  7 41  1  0
  8  9  1  0
  8 10  1  0
 10 11  1  0
 10 33  2  0
 11 12  1  0
 11 42  1  0
 12 13  1  1
 12 14  1  0
 12 26  1  0
 14 15  2  0
 14 43  1  0
 15 16  1  0
 15 44  1  0
 16 24  1  0
 16 17  2  0
 17 18  1  0
 18 23  2  0
 18 19  1  0
 19 20  2  0
 19 45  1  0
 20 21  1  0
 20 46  1  0
 21 22  2  0
 21 47  1  0
 22 23  1  0
 22 48  1  0
 23 24  1  0
 24 25  1  0
 26 32  1  0
 26 27  2  0
 27 28  1  0
 27 49  1  0
 28 29  2  0
 28 50  1  0
 29 30  1  0
 29 31  1  0
 31 32  2  0
 31 51  1  0
 32 52  1  0
 33 34  1  0
 35 36  1  0
 35 53  1  0
 36 54  1  0
M  CHG  1  33   1
M  END
>  <DOCK_score>  (1) 
-56.748734

>  <SMILES>  (1) 
Nc1ccc(-c2c[nH]c(N[C@@H](/C=C/c3nc4ccccc4[nH]3)c3ccc(F)cc3)[nH+]2)cc1

$$$$
