CCc1ccc(-c2c[nH]c(N[C@@H](Cc3ccn(C(C)C)n3)c3ccccc3)[nH+]2)cc1
     RDKit          3D

 60 63  0  0  1  0  0  0  0  0999 V2000
  130.5123  128.1784  151.9216 C   0  0  0  0  0  0  0  0  0  0  0  0
  131.3698  129.4411  152.0261 C   0  0  0  0  0  0  0  0  0  0  0  0
  131.0086  130.1913  153.2822 C   0  0  0  0  0  0  0  0  0  0  0  0
  131.6758  129.9196  154.4626 C   0  0  0  0  0  0  0  0  0  0  0  0
  131.3533  130.6073  155.6149 C   0  0  0  0  0  0  0  0  0  0  0  0
  130.3451  131.5693  155.5899 C   0  0  0  0  0  0  0  0  0  0  0  0
  129.9901  132.3079  156.8263 C   0  0  0  0  0  0  0  0  0  0  0  0
  129.5458  131.7591  157.9840 C   0  0  0  0  0  0  0  0  0  0  0  0
  129.3396  132.7947  158.8627 N   0  0  0  0  0  0  0  0  0  0  0  0
  129.0211  132.7187  159.7758 H   0  0  0  0  0  0  0  0  0  0  0  0
  129.6645  133.9471  158.2157 C   0  0  0  0  0  0  0  0  0  0  0  0
  129.5959  135.2208  158.7538 N   0  0  0  0  0  0  0  0  0  0  0  0
  129.1421  135.4095  160.1339 C   0  0  1  0  0  0  0  0  0  0  0  0
  129.5566  134.6223  160.7635 H   0  0  0  0  0  0  0  0  0  0  0  0
  129.6142  136.7725  160.6440 C   0  0  0  0  0  0  0  0  0  0  0  0
  131.1193  136.8324  160.5975 C   0  0  0  0  0  0  0  0  0  0  0  0
  131.9881  135.7450  160.7357 C   0  0  0  0  0  0  0  0  0  0  0  0
  133.2552  136.2091  160.6358 C   0  0  0  0  0  0  0  0  0  0  0  0
  133.1906  137.5430  160.4414 N   0  0  0  0  0  0  0  0  0  0  0  0
  134.3322  138.4468  160.2798 C   0  0  0  0  0  0  0  0  0  0  0  0
  134.6937  138.5515  158.7969 C   0  0  0  0  0  0  0  0  0  0  0  0
  133.9653  139.8325  160.8144 C   0  0  0  0  0  0  0  0  0  0  0  0
  131.8389  137.9100  160.4154 N   0  0  0  0  0  0  0  0  0  0  0  0
  127.6370  135.3497  160.1803 C   0  0  0  0  0  0  0  0  0  0  0  0
  126.9986  134.8819  161.3138 C   0  0  0  0  0  0  0  0  0  0  0  0
  125.6178  134.8312  161.3580 C   0  0  0  0  0  0  0  0  0  0  0  0
  124.8758  135.2396  160.2655 C   0  0  0  0  0  0  0  0  0  0  0  0
  125.5143  135.7023  159.1301 C   0  0  0  0  0  0  0  0  0  0  0  0
  126.8950  135.7572  159.0876 C   0  0  0  0  0  0  0  0  0  0  0  0
  130.0582  133.6516  157.0010 N   0  0  0  0  0  0  0  0  0  0  0  0
  130.3495  134.2917  156.3328 H   0  0  0  0  0  0  0  0  0  0  0  0
  129.6721  131.8352  154.3987 C   0  0  0  0  0  0  0  0  0  0  0  0
  130.0069  131.1453  153.2512 C   0  0  0  0  0  0  0  0  0  0  0  0
  130.6941  127.5435  152.7888 H   0  0  0  0  0  0  0  0  0  0  0  0
  129.4587  128.4559  151.8891 H   0  0  0  0  0  0  0  0  0  0  0  0
  130.7734  127.6359  151.0130 H   0  0  0  0  0  0  0  0  0  0  0  0
  132.4229  129.1640  152.0582 H   0  0  0  0  0  0  0  0  0  0  0  0
  131.1875  130.0764  151.1585 H   0  0  0  0  0  0  0  0  0  0  0  0
  132.4536  129.1705  154.4819 H   0  0  0  0  0  0  0  0  0  0  0  0
  131.8782  130.3976  156.5351 H   0  0  0  0  0  0  0  0  0  0  0  0
  129.3844  130.7090  158.1779 H   0  0  0  0  0  0  0  0  0  0  0  0
  129.8486  135.9883  158.2170 H   0  0  0  0  0  0  0  0  0  0  0  0
  129.1995  137.5597  160.0145 H   0  0  0  0  0  0  0  0  0  0  0  0
  129.2766  136.9129  161.6710 H   0  0  0  0  0  0  0  0  0  0  0  0
  131.6986  134.7166  160.8938 H   0  0  0  0  0  0  0  0  0  0  0  0
  134.1567  135.6179  160.6998 H   0  0  0  0  0  0  0  0  0  0  0  0
  135.1854  138.0573  160.8351 H   0  0  0  0  0  0  0  0  0  0  0  0
  133.8405  138.9411  158.2416 H   0  0  0  0  0  0  0  0  0  0  0  0
  135.5432  139.2240  158.6767 H   0  0  0  0  0  0  0  0  0  0  0  0
  134.9552  137.5642  158.4160 H   0  0  0  0  0  0  0  0  0  0  0  0
  133.7076  139.7578  161.8710 H   0  0  0  0  0  0  0  0  0  0  0  0
  134.8147  140.5050  160.6942 H   0  0  0  0  0  0  0  0  0  0  0  0
  133.1121  140.2221  160.2591 H   0  0  0  0  0  0  0  0  0  0  0  0
  127.5783  134.5594  162.1659 H   0  0  0  0  0  0  0  0  0  0  0  0
  125.1189  134.4699  162.2450 H   0  0  0  0  0  0  0  0  0  0  0  0
  123.7971  135.1974  160.2991 H   0  0  0  0  0  0  0  0  0  0  0  0
  124.9348  136.0213  158.2766 H   0  0  0  0  0  0  0  0  0  0  0  0
  127.3939  136.1187  158.2005 H   0  0  0  0  0  0  0  0  0  0  0  0
  128.8898  132.5795  154.3737 H   0  0  0  0  0  0  0  0  0  0  0  0
  129.4858  131.3503  152.3277 H   0  0  0  0  0  0  0  0  0  0  0  0
  1  2  1  0
  1 34  1  0
  1 35  1  0
  1 36  1  0
  2  3  1  0
  2 37  1  0
  2 38  1  0
  3 33  2  0
  3  4  1  0
  4  5  2  0
  4 39  1  0
  5  6  1  0
  5 40  1  0
  6  7  1  0
  6 32  2  0
  7 30  1  0
  7  8  2  0
  8  9  1  0
  8 41  1  0
  9 10  1  0
  9 11  1  0
 11 12  1  0
 11 30  2  0
 12 13  1  0
 12 42  1  0
 13 14  1  1
 13 15  1  0
 13 24  1  0
 15 16  1  0
 15 43  1  0
 15 44  1  0
 16 23  2  0
 16 17  1  0
 17 18  2  0
 17 45  1  0
 18 19  1  0
 18 46  1  0
 19 20  1  0
 19 23  1  0
 20 21  1  0
 20 22  1  0
 20 47  1  0
 21 48  1  0
 21 49  1  0
 21 50  1  0
 22 51  1  0
 22 52  1  0
 22 53  1  0
 24 29  1  0
 24 25  2  0
 25 26  1  0
 25 54  1  0
 26 27  2  0
 26 55  1  0
 27 28  1  0
 27 56  1  0
 28 29  2  0
 28 57  1  0
 29 58  1  0
 30 31  1  0
 32 33  1  0
 32 59  1  0
 33 60  1  0
M  CHG  1  30   1
M  END
>  <DOCK_score>  (1) 
-58.37323

>  <SMILES>  (1) 
CCc1ccc(-c2c[nH]c(N[C@@H](Cc3ccn(C(C)C)n3)c3ccccc3)[nH+]2)cc1

$$$$
