O=C1CCC([NH+]=C(NCC2=CCCC2)NC2CC3C[C@H]3C2)CN1
     RDKit          3D

 52 55  0  0  1  0  0  0  0  0999 V2000
  123.8616  133.7871  162.0363 O   0  0  0  0  0  0  0  0  0  0  0  0
  125.0192  134.0190  161.7583 C   0  0  0  0  0  0  0  0  0  0  0  0
  125.8700  132.8878  161.2567 C   0  0  0  0  0  0  0  0  0  0  0  0
  127.3546  133.2544  161.3782 C   0  0  0  0  0  0  0  0  0  0  0  0
  127.5550  134.6511  160.7778 C   0  0  2  0  0  0  0  0  0  0  0  0
  128.9858  134.9604  160.7197 N   0  0  0  0  0  0  0  0  0  0  0  0
  129.4179  135.3992  161.4692 H   0  0  0  0  0  0  0  0  0  0  0  0
  129.6781  134.6462  159.6610 C   0  0  0  0  0  0  0  0  0  0  0  0
  129.0656  134.0245  158.5987 N   0  0  0  0  0  0  0  0  0  0  0  0
  129.5631  134.2400  157.2378 C   0  0  0  0  0  0  0  0  0  0  0  0
  129.9872  132.9218  156.6433 C   0  0  0  0  0  0  0  0  0  0  0  0
  130.4491  131.9150  157.3340 C   0  0  0  0  0  0  0  0  0  0  0  0
  130.7801  130.7456  156.4361 C   0  0  0  0  0  0  0  0  0  0  0  0
  130.8371  131.3469  155.0125 C   0  0  0  0  0  0  0  0  0  0  0  0
  129.9277  132.5895  155.1706 C   0  0  0  0  0  0  0  0  0  0  0  0
  131.0209  134.9365  159.6066 N   0  0  0  0  0  0  0  0  0  0  0  0
  131.6736  135.5989  160.7386 C   0  0  2  0  0  0  0  0  0  0  0  0
  132.9560  136.3357  160.2784 C   0  0  0  0  0  0  0  0  0  0  0  0
  133.8150  136.4337  161.5559 C   0  0  1  0  0  0  0  0  0  0  0  0
  133.1030  136.7547  162.9002 C   0  0  0  0  0  0  0  0  0  0  0  0
  133.3477  135.3018  162.4878 C   0  0  1  0  0  0  0  0  0  0  0  0
  134.0611  134.7004  163.0510 H   0  0  0  0  0  0  0  0  0  0  0  0
  132.2208  134.5556  161.7440 C   0  0  0  0  0  0  0  0  0  0  0  0
  126.8441  135.6752  161.6634 C   0  0  0  0  0  0  0  0  0  0  0  0
  125.4682  135.2649  161.9143 N   0  0  0  0  0  0  0  0  0  0  0  0
  125.6686  131.9938  161.8469 H   0  0  0  0  0  0  0  0  0  0  0  0
  125.6325  132.6923  160.2109 H   0  0  0  0  0  0  0  0  0  0  0  0
  127.9612  132.5306  160.8341 H   0  0  0  0  0  0  0  0  0  0  0  0
  127.6449  133.2615  162.4288 H   0  0  0  0  0  0  0  0  0  0  0  0
  127.1334  134.6813  159.7731 H   0  0  0  0  0  0  0  0  0  0  0  0
  128.3040  133.4433  158.7503 H   0  0  0  0  0  0  0  0  0  0  0  0
  128.7729  134.6765  156.6268 H   0  0  0  0  0  0  0  0  0  0  0  0
  130.4167  134.9172  157.2658 H   0  0  0  0  0  0  0  0  0  0  0  0
  130.5781  131.9176  158.4062 H   0  0  0  0  0  0  0  0  0  0  0  0
  131.7462  130.3202  156.7074 H   0  0  0  0  0  0  0  0  0  0  0  0
  130.0006  129.9864  156.4984 H   0  0  0  0  0  0  0  0  0  0  0  0
  131.8553  131.6334  154.7492 H   0  0  0  0  0  0  0  0  0  0  0  0
  130.4256  130.6541  154.2784 H   0  0  0  0  0  0  0  0  0  0  0  0
  128.9050  132.3549  154.8752 H   0  0  0  0  0  0  0  0  0  0  0  0
  130.3139  133.4191  154.5783 H   0  0  0  0  0  0  0  0  0  0  0  0
  131.5360  134.7027  158.8187 H   0  0  0  0  0  0  0  0  0  0  0  0
  130.9855  136.2861  161.2311 H   0  0  0  0  0  0  0  0  0  0  0  0
  133.4743  135.7575  159.5134 H   0  0  0  0  0  0  0  0  0  0  0  0
  132.7115  137.3305  159.9058 H   0  0  0  0  0  0  0  0  0  0  0  0
  134.8723  136.6720  161.4398 H   0  0  0  0  0  0  0  0  0  0  0  0
  132.0774  137.1221  162.8622 H   0  0  0  0  0  0  0  0  0  0  0  0
  133.7171  137.1590  163.7048 H   0  0  0  0  0  0  0  0  0  0  0  0
  131.4401  134.2512  162.4410 H   0  0  0  0  0  0  0  0  0  0  0  0
  132.6185  133.6889  161.2159 H   0  0  0  0  0  0  0  0  0  0  0  0
  127.3736  135.7600  162.6124 H   0  0  0  0  0  0  0  0  0  0  0  0
  126.8459  136.6449  161.1656 H   0  0  0  0  0  0  0  0  0  0  0  0
  124.8396  135.9407  162.2130 H   0  0  0  0  0  0  0  0  0  0  0  0
  1  2  2  0
  2 25  1  0
  2  3  1  0
  3  4  1  0
  3 26  1  0
  3 27  1  0
  4  5  1  0
  4 28  1  0
  4 29  1  0
  5  6  1  0
  5 24  1  0
  5 30  1  6
  6  7  1  0
  8  6  2  0
  8  9  1  0
  8 16  1  0
  9 10  1  0
  9 31  1  0
 10 11  1  0
 10 32  1  0
 10 33  1  0
 11 15  1  0
 11 12  2  0
 12 13  1  0
 12 34  1  0
 13 14  1  0
 13 35  1  0
 13 36  1  0
 14 15  1  0
 14 37  1  0
 14 38  1  0
 15 39  1  0
 15 40  1  0
 16 17  1  0
 16 41  1  0
 17 23  1  0
 17 18  1  0
 17 42  1  1
 18 19  1  0
 18 43  1  0
 18 44  1  0
 19 21  1  0
 19 20  1  0
 19 45  1  6
 20 21  1  0
 20 46  1  0
 20 47  1  0
 21 22  1  1
 21 23  1  0
 23 48  1  0
 23 49  1  0
 24 25  1  0
 24 50  1  0
 24 51  1  0
 25 52  1  0
M  CHG  1   6   1
M  END
>  <DOCK_score>  (1) 
-44.016529

>  <SMILES>  (1) 
O=C1CCC([NH+]=C(NCC2=CCCC2)NC2CC3C[C@H]3C2)CN1

$$$$
