Cc1cccc(-c2ccc(C[NH2+]Cc3c[nH]nc3-c3cccc(C4=CCC=CC4)c3)cc2)c1
     RDKit          3D

 63 67  0  0  0  0  0  0  0  0999 V2000
  130.2298  126.9989  151.2849 C   0  0  0  0  0  0  0  0  0  0  0  0
  130.3339  128.5006  151.3562 C   0  0  0  0  0  0  0  0  0  0  0  0
  130.3393  129.2486  150.1925 C   0  0  0  0  0  0  0  0  0  0  0  0
  130.4340  130.6270  150.2507 C   0  0  0  0  0  0  0  0  0  0  0  0
  130.5240  131.2642  151.4719 C   0  0  0  0  0  0  0  0  0  0  0  0
  130.5191  130.5160  152.6470 C   0  0  0  0  0  0  0  0  0  0  0  0
  130.6158  131.1954  153.9628 C   0  0  0  0  0  0  0  0  0  0  0  0
  131.2135  130.5475  155.0420 C   0  0  0  0  0  0  0  0  0  0  0  0
  131.3064  131.1866  156.2618 C   0  0  0  0  0  0  0  0  0  0  0  0
  130.7966  132.4630  156.4175 C   0  0  0  0  0  0  0  0  0  0  0  0
  130.8950  133.1529  157.7536 C   0  0  0  0  0  0  0  0  0  0  0  0
  129.6081  133.7844  158.0746 N   0  0  0  0  0  0  0  0  0  0  0  0
  129.3788  134.4615  157.3624 H   0  0  0  0  0  0  0  0  0  0  0  0
  128.8875  133.0791  158.1124 H   0  0  0  0  0  0  0  0  0  0  0  0
  129.7040  134.4569  159.3771 C   0  0  0  0  0  0  0  0  0  0  0  0
  128.3838  135.1047  159.7063 C   0  0  0  0  0  0  0  0  0  0  0  0
  127.1638  134.5434  159.5596 C   0  0  0  0  0  0  0  0  0  0  0  0
  126.2404  135.4407  159.9665 N   0  0  0  0  0  0  0  0  0  0  0  0
  125.2798  135.3057  159.9737 H   0  0  0  0  0  0  0  0  0  0  0  0
  126.9100  136.6026  160.3708 N   0  0  0  0  0  0  0  0  0  0  0  0
  128.2021  136.4051  160.2159 C   0  0  0  0  0  0  0  0  0  0  0  0
  129.2777  137.3806  160.5234 C   0  0  0  0  0  0  0  0  0  0  0  0
  130.1344  137.8169  159.5135 C   0  0  0  0  0  0  0  0  0  0  0  0
  131.1360  138.7244  159.7971 C   0  0  0  0  0  0  0  0  0  0  0  0
  131.2961  139.2057  161.0811 C   0  0  0  0  0  0  0  0  0  0  0  0
  130.4451  138.7762  162.1008 C   0  0  0  0  0  0  0  0  0  0  0  0
  130.6171  139.2915  163.4757 C   0  0  0  0  0  0  0  0  0  0  0  0
  131.7578  139.0758  164.0923 C   0  0  0  0  0  0  0  0  0  0  0  0
  132.0293  139.5628  165.4841 C   0  0  0  0  0  0  0  0  0  0  0  0
  130.7531  139.8600  166.2114 C   0  0  0  0  0  0  0  0  0  0  0  0
  129.6252  140.0684  165.6046 C   0  0  0  0  0  0  0  0  0  0  0  0
  129.4811  140.0340  164.1132 C   0  0  0  0  0  0  0  0  0  0  0  0
  129.4290  137.8652  161.8181 C   0  0  0  0  0  0  0  0  0  0  0  0
  130.1973  133.1085  155.3510 C   0  0  0  0  0  0  0  0  0  0  0  0
  130.1044  132.4814  154.1251 C   0  0  0  0  0  0  0  0  0  0  0  0
  130.4233  129.1272  152.5826 C   0  0  0  0  0  0  0  0  0  0  0  0
  129.1801  126.7059  151.3070 H   0  0  0  0  0  0  0  0  0  0  0  0
  130.6859  126.6468  150.3596 H   0  0  0  0  0  0  0  0  0  0  0  0
  130.7481  126.5579  152.1363 H   0  0  0  0  0  0  0  0  0  0  0  0
  130.2691  128.7542  149.2348 H   0  0  0  0  0  0  0  0  0  0  0  0
  130.4332  131.2064  149.3393 H   0  0  0  0  0  0  0  0  0  0  0  0
  130.5975  132.3408  151.5163 H   0  0  0  0  0  0  0  0  0  0  0  0
  131.6073  129.5491  154.9230 H   0  0  0  0  0  0  0  0  0  0  0  0
  131.7734  130.6870  157.0979 H   0  0  0  0  0  0  0  0  0  0  0  0
  131.1427  132.4215  158.5228 H   0  0  0  0  0  0  0  0  0  0  0  0
  131.6734  133.9148  157.7126 H   0  0  0  0  0  0  0  0  0  0  0  0
  129.9516  133.7256  160.1463 H   0  0  0  0  0  0  0  0  0  0  0  0
  130.4823  135.2190  159.3360 H   0  0  0  0  0  0  0  0  0  0  0  0
  126.9626  133.5505  159.1853 H   0  0  0  0  0  0  0  0  0  0  0  0
  130.0145  137.4438  158.5071 H   0  0  0  0  0  0  0  0  0  0  0  0
  131.7966  139.0593  159.0109 H   0  0  0  0  0  0  0  0  0  0  0  0
  132.0811  139.9154  161.2971 H   0  0  0  0  0  0  0  0  0  0  0  0
  132.5317  138.5289  163.5743 H   0  0  0  0  0  0  0  0  0  0  0  0
  132.6334  140.4688  165.4374 H   0  0  0  0  0  0  0  0  0  0  0  0
  132.5794  138.7944  166.0271 H   0  0  0  0  0  0  0  0  0  0  0  0
  130.7731  139.9025  167.2904 H   0  0  0  0  0  0  0  0  0  0  0  0
  128.7497  140.2765  166.2021 H   0  0  0  0  0  0  0  0  0  0  0  0
  129.4633  141.0551  163.7325 H   0  0  0  0  0  0  0  0  0  0  0  0
  128.5435  139.5410  163.8570 H   0  0  0  0  0  0  0  0  0  0  0  0
  128.7647  137.5334  162.6022 H   0  0  0  0  0  0  0  0  0  0  0  0
  129.8009  134.1051  155.4780 H   0  0  0  0  0  0  0  0  0  0  0  0
  129.6367  132.9865  153.2930 H   0  0  0  0  0  0  0  0  0  0  0  0
  130.4194  128.5424  153.4906 H   0  0  0  0  0  0  0  0  0  0  0  0
  1  2  1  0
  1 37  1  0
  1 38  1  0
  1 39  1  0
  2 36  2  0
  2  3  1  0
  3  4  2  0
  3 40  1  0
  4  5  1  0
  4 41  1  0
  5  6  2  0
  5 42  1  0
  6  7  1  0
  6 36  1  0
  7 35  1  0
  7  8  2  0
  8  9  1  0
  8 43  1  0
  9 10  2  0
  9 44  1  0
 10 11  1  0
 10 34  1  0
 11 12  1  0
 11 45  1  0
 11 46  1  0
 12 13  1  0
 12 14  1  0
 12 15  1  0
 15 16  1  0
 15 47  1  0
 15 48  1  0
 16 21  1  0
 16 17  2  0
 17 18  1  0
 17 49  1  0
 18 19  1  0
 18 20  1  0
 20 21  2  0
 21 22  1  0
 22 33  1  0
 22 23  2  0
 23 24  1  0
 23 50  1  0
 24 25  2  0
 24 51  1  0
 25 26  1  0
 25 52  1  0
 26 27  1  0
 26 33  2  0
 27 32  1  0
 27 28  2  0
 28 29  1  0
 28 53  1  0
 29 30  1  0
 29 54  1  0
 29 55  1  0
 30 31  2  0
 30 56  1  0
 31 32  1  0
 31 57  1  0
 32 58  1  0
 32 59  1  0
 33 60  1  0
 34 35  2  0
 34 61  1  0
 35 62  1  0
 36 63  1  0
M  CHG  1  12   1
M  END
>  <DOCK_score>  (1) 
-50.001568

>  <SMILES>  (1) 
Cc1cccc(-c2ccc(C[NH2+]Cc3c[nH]nc3-c3cccc(C4=CCC=CC4)c3)cc2)c1

$$$$
