Brc1ccc([C@H](Nc2[nH]cc(-c3cccnc3)[nH+]2)c2ccccc2)cc1
     RDKit          3D

 44 47  0  0  1  0  0  0  0  0999 V2000
  130.9521  141.2631  161.8588 Br  0  0  0  0  0  0  0  0  0  0  0  0
  130.5340  139.4861  161.3654 C   0  0  0  0  0  0  0  0  0  0  0  0
  130.3167  138.5300  162.3411 C   0  0  0  0  0  0  0  0  0  0  0  0
  130.0050  137.2328  161.9801 C   0  0  0  0  0  0  0  0  0  0  0  0
  129.9220  136.8880  160.6440 C   0  0  0  0  0  0  0  0  0  0  0  0
  129.5878  135.4720  160.2507 C   0  0  2  0  0  0  0  0  0  0  0  0
  129.9555  134.7865  161.0142 H   0  0  0  0  0  0  0  0  0  0  0  0
  130.2216  135.1591  158.9675 N   0  0  0  0  0  0  0  0  0  0  0  0
  130.0556  133.9071  158.4007 C   0  0  0  0  0  0  0  0  0  0  0  0
  129.3364  132.8834  158.9363 N   0  0  0  0  0  0  0  0  0  0  0  0
  128.8520  132.8997  159.7764 H   0  0  0  0  0  0  0  0  0  0  0  0
  129.4207  131.8238  158.0660 C   0  0  0  0  0  0  0  0  0  0  0  0
  130.1955  132.2273  157.0287 C   0  0  0  0  0  0  0  0  0  0  0  0
  130.5678  131.4105  155.8478 C   0  0  0  0  0  0  0  0  0  0  0  0
  130.2077  131.8183  154.5600 C   0  0  0  0  0  0  0  0  0  0  0  0
  130.5841  131.0241  153.4908 C   0  0  0  0  0  0  0  0  0  0  0  0
  131.2875  129.8572  153.7293 C   0  0  0  0  0  0  0  0  0  0  0  0
  131.6086  129.4954  154.9563 N   0  0  0  0  0  0  0  0  0  0  0  0
  131.2771  130.2214  156.0045 C   0  0  0  0  0  0  0  0  0  0  0  0
  130.5701  133.5101  157.2623 N   0  0  0  0  0  0  0  0  0  0  0  0
  131.1290  134.0479  156.6798 H   0  0  0  0  0  0  0  0  0  0  0  0
  128.0934  135.3258  160.1219 C   0  0  0  0  0  0  0  0  0  0  0  0
  127.3389  134.9489  161.2171 C   0  0  0  0  0  0  0  0  0  0  0  0
  125.9676  134.8191  161.1000 C   0  0  0  0  0  0  0  0  0  0  0  0
  125.3520  135.0573  159.8855 C   0  0  0  0  0  0  0  0  0  0  0  0
  126.1071  135.4293  158.7890 C   0  0  0  0  0  0  0  0  0  0  0  0
  127.4779  135.5633  158.9071 C   0  0  0  0  0  0  0  0  0  0  0  0
  130.1452  137.8417  159.6683 C   0  0  0  0  0  0  0  0  0  0  0  0
  130.4508  139.1406  160.0285 C   0  0  0  0  0  0  0  0  0  0  0  0
  130.3862  138.7983  163.3851 H   0  0  0  0  0  0  0  0  0  0  0  0
  129.8302  136.4874  162.7418 H   0  0  0  0  0  0  0  0  0  0  0  0
  130.7574  135.8292  158.5151 H   0  0  0  0  0  0  0  0  0  0  0  0
  128.9615  130.8539  158.1867 H   0  0  0  0  0  0  0  0  0  0  0  0
  129.6537  132.7320  154.4031 H   0  0  0  0  0  0  0  0  0  0  0  0
  130.3273  131.3101  152.4815 H   0  0  0  0  0  0  0  0  0  0  0  0
  131.5790  129.2328  152.8976 H   0  0  0  0  0  0  0  0  0  0  0  0
  131.5578  129.8920  156.9940 H   0  0  0  0  0  0  0  0  0  0  0  0
  127.8203  134.7590  162.1650 H   0  0  0  0  0  0  0  0  0  0  0  0
  125.3775  134.5288  161.9566 H   0  0  0  0  0  0  0  0  0  0  0  0
  124.2810  134.9534  159.7933 H   0  0  0  0  0  0  0  0  0  0  0  0
  125.6262  135.6155  157.8400 H   0  0  0  0  0  0  0  0  0  0  0  0
  128.0680  135.8539  158.0505 H   0  0  0  0  0  0  0  0  0  0  0  0
  130.0802  137.5719  158.6246 H   0  0  0  0  0  0  0  0  0  0  0  0
  130.6244  139.8858  159.2664 H   0  0  0  0  0  0  0  0  0  0  0  0
  1  2  1  0
  2 29  2  0
  2  3  1  0
  3  4  2  0
  3 30  1  0
  4  5  1  0
  4 31  1  0
  5  6  1  0
  5 28  2  0
  6  7  1  1
  6  8  1  0
  6 22  1  0
  8 32  1  0
  9  8  1  0
  9 20  2  0
  9 10  1  0
 10 11  1  0
 10 12  1  0
 12 13  2  0
 12 33  1  0
 13 14  1  0
 13 20  1  0
 14 19  1  0
 14 15  2  0
 15 16  1  0
 15 34  1  0
 16 17  2  0
 16 35  1  0
 17 18  1  0
 17 36  1  0
 18 19  2  0
 19 37  1  0
 20 21  1  0
 22 27  1  0
 22 23  2  0
 23 24  1  0
 23 38  1  0
 24 25  2  0
 24 39  1  0
 25 26  1  0
 25 40  1  0
 26 27  2  0
 26 41  1  0
 27 42  1  0
 28 29  1  0
 28 43  1  0
 29 44  1  0
M  CHG  1  20   1
M  END
>  <DOCK_score>  (1) 
-59.099689

>  <SMILES>  (1) 
Brc1ccc([C@H](Nc2[nH]cc(-c3cccnc3)[nH+]2)c2ccccc2)cc1

$$$$
