c1cc(-c2n[nH]cc2C[NH2+]C2CCCCCC2)oc1N[C@H]1CC12CCOCC2
     RDKit          3D

 61 65  0  0  1  0  0  0  0  0999 V2000
  125.9788  134.7079  160.3783 C   0  0  0  0  0  0  0  0  0  0  0  0
  126.7867  133.9990  159.4675 C   0  0  0  0  0  0  0  0  0  0  0  0
  128.0760  134.3231  159.7499 C   0  0  0  0  0  0  0  0  0  0  0  0
  129.2710  133.8099  159.0487 C   0  0  0  0  0  0  0  0  0  0  0  0
  129.2748  132.9547  158.0452 N   0  0  0  0  0  0  0  0  0  0  0  0
  130.6055  132.7323  157.6687 N   0  0  0  0  0  0  0  0  0  0  0  0
  130.9044  132.1481  156.9543 H   0  0  0  0  0  0  0  0  0  0  0  0
  131.4006  133.4672  158.4762 C   0  0  0  0  0  0  0  0  0  0  0  0
  130.6111  134.1431  159.3380 C   0  0  0  0  0  0  0  0  0  0  0  0
  131.0781  135.0854  160.4174 C   0  0  0  0  0  0  0  0  0  0  0  0
  132.1101  135.9789  159.8744 N   0  0  0  0  0  0  0  0  0  0  0  0
  132.8907  135.4304  159.5457 H   0  0  0  0  0  0  0  0  0  0  0  0
  131.7256  136.5100  159.1076 H   0  0  0  0  0  0  0  0  0  0  0  0
  132.5655  136.8974  160.9266 C   0  0  0  0  0  0  0  0  0  0  0  0
  133.1734  138.1516  160.2661 C   0  0  0  0  0  0  0  0  0  0  0  0
  133.1651  139.2723  161.2700 C   0  0  0  0  0  0  0  0  0  0  0  0
  134.4947  139.3840  162.0400 C   0  0  0  0  0  0  0  0  0  0  0  0
  135.0643  138.0125  162.4506 C   0  0  0  0  0  0  0  0  0  0  0  0
  134.0009  137.0752  162.9554 C   0  0  0  0  0  0  0  0  0  0  0  0
  133.5186  136.2022  161.7790 C   0  0  0  0  0  0  0  0  0  0  0  0
  128.0776  135.1945  160.7806 O   0  0  0  0  0  0  0  0  0  0  0  0
  126.8121  135.4348  161.1638 C   0  0  0  0  0  0  0  0  0  0  0  0
  126.4230  136.2813  162.1955 N   0  0  0  0  0  0  0  0  0  0  0  0
  127.4339  137.0089  162.9668 C   0  0  1  0  0  0  0  0  0  0  0  0
  128.0658  137.6863  162.3923 H   0  0  0  0  0  0  0  0  0  0  0  0
  127.0717  137.4210  164.3956 C   0  0  0  0  0  0  0  0  0  0  0  0
  128.0688  136.2885  164.1543 C   0  0  0  0  0  0  0  0  0  0  0  0
  129.5478  136.5610  164.4490 C   0  0  0  0  0  0  0  0  0  0  0  0
  130.3876  135.4742  163.7675 C   0  0  0  0  0  0  0  0  0  0  0  0
  129.9191  134.1882  164.1773 O   0  0  0  0  0  0  0  0  0  0  0  0
  128.5841  133.8854  163.7677 C   0  0  0  0  0  0  0  0  0  0  0  0
  127.6121  134.8557  164.4494 C   0  0  0  0  0  0  0  0  0  0  0  0
  124.9009  134.6796  160.4384 H   0  0  0  0  0  0  0  0  0  0  0  0
  126.4469  133.3241  158.6958 H   0  0  0  0  0  0  0  0  0  0  0  0
  132.4791  133.5069  158.4389 H   0  0  0  0  0  0  0  0  0  0  0  0
  130.2349  135.6778  160.7724 H   0  0  0  0  0  0  0  0  0  0  0  0
  131.4935  134.5116  161.2457 H   0  0  0  0  0  0  0  0  0  0  0  0
  131.7076  137.1976  161.5280 H   0  0  0  0  0  0  0  0  0  0  0  0
  134.1981  137.9431  159.9584 H   0  0  0  0  0  0  0  0  0  0  0  0
  132.5776  138.4333  159.3978 H   0  0  0  0  0  0  0  0  0  0  0  0
  132.3581  139.1015  161.9825 H   0  0  0  0  0  0  0  0  0  0  0  0
  132.9795  140.2114  160.7486 H   0  0  0  0  0  0  0  0  0  0  0  0
  134.3320  139.9801  162.9380 H   0  0  0  0  0  0  0  0  0  0  0  0
  135.2233  139.8923  161.4086 H   0  0  0  0  0  0  0  0  0  0  0  0
  135.8064  138.1594  163.2352 H   0  0  0  0  0  0  0  0  0  0  0  0
  135.5506  137.5611  161.5858 H   0  0  0  0  0  0  0  0  0  0  0  0
  133.1641  137.6502  163.3518 H   0  0  0  0  0  0  0  0  0  0  0  0
  134.4149  136.4392  163.7378 H   0  0  0  0  0  0  0  0  0  0  0  0
  133.0467  135.3036  162.1764 H   0  0  0  0  0  0  0  0  0  0  0  0
  134.3815  135.9116  161.1798 H   0  0  0  0  0  0  0  0  0  0  0  0
  125.4819  136.3933  162.4021 H   0  0  0  0  0  0  0  0  0  0  0  0
  127.4659  138.3691  164.7614 H   0  0  0  0  0  0  0  0  0  0  0  0
  126.0812  137.1506  164.7616 H   0  0  0  0  0  0  0  0  0  0  0  0
  129.8255  137.5389  164.0558 H   0  0  0  0  0  0  0  0  0  0  0  0
  129.7177  136.5341  165.5254 H   0  0  0  0  0  0  0  0  0  0  0  0
  131.4329  135.5888  164.0543 H   0  0  0  0  0  0  0  0  0  0  0  0
  130.2949  135.5673  162.6854 H   0  0  0  0  0  0  0  0  0  0  0  0
  128.3386  132.8631  164.0548 H   0  0  0  0  0  0  0  0  0  0  0  0
  128.5027  133.9891  162.6858 H   0  0  0  0  0  0  0  0  0  0  0  0
  127.6176  134.6840  165.5258 H   0  0  0  0  0  0  0  0  0  0  0  0
  126.6054  134.7046  164.0596 H   0  0  0  0  0  0  0  0  0  0  0  0
  1 22  2  0
  1  2  1  0
  1 33  1  0
  2  3  2  0
  2 34  1  0
  3  4  1  0
  3 21  1  0
  4  9  1  0
  4  5  2  0
  5  6  1  0
  6  7  1  0
  6  8  1  0
  8  9  2  0
  8 35  1  0
  9 10  1  0
 10 11  1  0
 10 36  1  0
 10 37  1  0
 11 12  1  0
 11 13  1  0
 11 14  1  0
 14 20  1  0
 14 15  1  0
 14 38  1  0
 15 16  1  0
 15 39  1  0
 15 40  1  0
 16 17  1  0
 16 41  1  0
 16 42  1  0
 17 18  1  0
 17 43  1  0
 17 44  1  0
 18 19  1  0
 18 45  1  0
 18 46  1  0
 19 20  1  0
 19 47  1  0
 19 48  1  0
 20 49  1  0
 20 50  1  0
 21 22  1  0
 22 23  1  0
 23 24  1  0
 23 51  1  0
 24 25  1  6
 24 27  1  0
 24 26  1  0
 26 27  1  0
 26 52  1  0
 26 53  1  0
 27 32  1  0
 27 28  1  0
 28 29  1  0
 28 54  1  0
 28 55  1  0
 29 30  1  0
 29 56  1  0
 29 57  1  0
 30 31  1  0
 31 32  1  0
 31 58  1  0
 31 59  1  0
 32 60  1  0
 32 61  1  0
M  CHG  1  11   1
M  END
>  <DOCK_score>  (1) 
-43.617447

>  <SMILES>  (1) 
c1cc(-c2n[nH]cc2C[NH2+]C2CCCCCC2)oc1N[C@H]1CC12CCOCC2

$$$$
