CCc1cccc(C)c1CNc1ccc(-c2c[nH]c(N[C@@H](c3ccccc3)c3ccc(F)cc3)[nH+]2)cc1
     RDKit          3D

 69 73  0  0  1  0  0  0  0  0999 V2000
  134.9734  142.5219  166.5586 C   0  0  0  0  0  0  0  0  0  0  0  0
  136.1581  142.0407  165.7187 C   0  0  0  0  0  0  0  0  0  0  0  0
  137.3020  141.6720  166.6280 C   0  0  0  0  0  0  0  0  0  0  0  0
  138.2380  142.6257  166.9829 C   0  0  0  0  0  0  0  0  0  0  0  0
  139.2870  142.2876  167.8168 C   0  0  0  0  0  0  0  0  0  0  0  0
  139.4003  140.9957  168.2963 C   0  0  0  0  0  0  0  0  0  0  0  0
  138.4676  140.0412  167.9374 C   0  0  0  0  0  0  0  0  0  0  0  0
  138.5946  138.6316  168.4549 C   0  0  0  0  0  0  0  0  0  0  0  0
  137.4150  140.3807  167.1077 C   0  0  0  0  0  0  0  0  0  0  0  0
  136.3944  139.3414  166.7213 C   0  0  0  0  0  0  0  0  0  0  0  0
  136.8275  138.6632  165.4970 N   0  0  0  0  0  0  0  0  0  0  0  0
  135.8784  138.1567  164.6060 C   0  0  0  0  0  0  0  0  0  0  0  0
  136.2319  137.9022  163.2862 C   0  0  0  0  0  0  0  0  0  0  0  0
  135.2983  137.3967  162.4063 C   0  0  0  0  0  0  0  0  0  0  0  0
  133.9959  137.1514  162.8387 C   0  0  0  0  0  0  0  0  0  0  0  0
  132.9882  136.6125  161.8927 C   0  0  0  0  0  0  0  0  0  0  0  0
  132.9587  136.8221  160.5535 C   0  0  0  0  0  0  0  0  0  0  0  0
  131.8659  136.1440  160.0677 N   0  0  0  0  0  0  0  0  0  0  0  0
  131.5796  136.1035  159.1419 H   0  0  0  0  0  0  0  0  0  0  0  0
  131.2600  135.5400  161.1258 C   0  0  0  0  0  0  0  0  0  0  0  0
  130.1204  134.7565  161.0631 N   0  0  0  0  0  0  0  0  0  0  0  0
  129.4639  134.5202  159.7750 C   0  0  1  0  0  0  0  0  0  0  0  0
  129.4717  135.4395  159.1891 H   0  0  0  0  0  0  0  0  0  0  0  0
  130.2017  133.4408  159.0257 C   0  0  0  0  0  0  0  0  0  0  0  0
  130.2121  133.4426  157.6433 C   0  0  0  0  0  0  0  0  0  0  0  0
  130.8925  132.4549  156.9560 C   0  0  0  0  0  0  0  0  0  0  0  0
  131.5548  131.4602  157.6509 C   0  0  0  0  0  0  0  0  0  0  0  0
  131.5400  131.4555  159.0332 C   0  0  0  0  0  0  0  0  0  0  0  0
  130.8633  132.4457  159.7206 C   0  0  0  0  0  0  0  0  0  0  0  0
  128.0399  134.0859  160.0090 C   0  0  0  0  0  0  0  0  0  0  0  0
  127.7403  132.7428  160.1401 C   0  0  0  0  0  0  0  0  0  0  0  0
  126.4356  132.3437  160.3604 C   0  0  0  0  0  0  0  0  0  0  0  0
  125.4269  133.2889  160.4389 C   0  0  0  0  0  0  0  0  0  0  0  0
  124.1504  132.8996  160.6487 F   0  0  0  0  0  0  0  0  0  0  0  0
  125.7275  134.6335  160.3019 C   0  0  0  0  0  0  0  0  0  0  0  0
  127.0336  135.0306  160.0868 C   0  0  0  0  0  0  0  0  0  0  0  0
  131.9364  135.8181  162.2138 N   0  0  0  0  0  0  0  0  0  0  0  0
  131.7185  135.5072  163.1064 H   0  0  0  0  0  0  0  0  0  0  0  0
  133.6420  137.4128  164.1613 C   0  0  0  0  0  0  0  0  0  0  0  0
  134.5804  137.9132  165.0392 C   0  0  0  0  0  0  0  0  0  0  0  0
  134.1461  142.7885  165.9010 H   0  0  0  0  0  0  0  0  0  0  0  0
  134.6592  141.7258  167.2334 H   0  0  0  0  0  0  0  0  0  0  0  0
  135.2711  143.3946  167.1400 H   0  0  0  0  0  0  0  0  0  0  0  0
  136.4725  142.8368  165.0439 H   0  0  0  0  0  0  0  0  0  0  0  0
  135.8605  141.1680  165.1372 H   0  0  0  0  0  0  0  0  0  0  0  0
  138.1496  143.6347  166.6080 H   0  0  0  0  0  0  0  0  0  0  0  0
  140.0184  143.0325  168.0938 H   0  0  0  0  0  0  0  0  0  0  0  0
  140.2202  140.7316  168.9478 H   0  0  0  0  0  0  0  0  0  0  0  0
  138.0555  138.5407  169.3978 H   0  0  0  0  0  0  0  0  0  0  0  0
  138.1733  137.9380  167.7272 H   0  0  0  0  0  0  0  0  0  0  0  0
  139.6469  138.3964  168.6140 H   0  0  0  0  0  0  0  0  0  0  0  0
  136.2963  138.6120  167.5254 H   0  0  0  0  0  0  0  0  0  0  0  0
  135.4322  139.8235  166.5485 H   0  0  0  0  0  0  0  0  0  0  0  0
  137.7733  138.5659  165.3051 H   0  0  0  0  0  0  0  0  0  0  0  0
  137.2399  138.0965  162.9505 H   0  0  0  0  0  0  0  0  0  0  0  0
  135.5746  137.1949  161.3820 H   0  0  0  0  0  0  0  0  0  0  0  0
  133.6593  137.4095  159.9785 H   0  0  0  0  0  0  0  0  0  0  0  0
  129.7565  134.3641  161.8721 H   0  0  0  0  0  0  0  0  0  0  0  0
  129.6915  134.2175  157.1004 H   0  0  0  0  0  0  0  0  0  0  0  0
  130.9043  132.4588  155.8761 H   0  0  0  0  0  0  0  0  0  0  0  0
  132.0842  130.6871  157.1139 H   0  0  0  0  0  0  0  0  0  0  0  0
  132.0576  130.6784  159.5761 H   0  0  0  0  0  0  0  0  0  0  0  0
  130.8518  132.4419  160.8005 H   0  0  0  0  0  0  0  0  0  0  0  0
  128.5265  132.0053  160.0744 H   0  0  0  0  0  0  0  0  0  0  0  0
  126.2023  131.2945  160.4668 H   0  0  0  0  0  0  0  0  0  0  0  0
  124.9415  135.3717  160.3625 H   0  0  0  0  0  0  0  0  0  0  0  0
  127.2683  136.0794  159.9799 H   0  0  0  0  0  0  0  0  0  0  0  0
  132.6335  137.2238  164.4985 H   0  0  0  0  0  0  0  0  0  0  0  0
  134.3067  138.1159  166.0640 H   0  0  0  0  0  0  0  0  0  0  0  0
  1  2  1  0
  1 41  1  0
  1 42  1  0
  1 43  1  0
  2  3  1  0
  2 44  1  0
  2 45  1  0
  3  9  2  0
  3  4  1  0
  4  5  2  0
  4 46  1  0
  5  6  1  0
  5 47  1  0
  6  7  2  0
  6 48  1  0
  7  8  1  0
  7  9  1  0
  8 49  1  0
  8 50  1  0
  8 51  1  0
  9 10  1  0
 10 11  1  0
 10 52  1  0
 10 53  1  0
 11 12  1  0
 11 54  1  0
 12 40  1  0
 12 13  2  0
 13 14  1  0
 13 55  1  0
 14 15  2  0
 14 56  1  0
 15 16  1  0
 15 39  1  0
 16 37  1  0
 16 17  2  0
 17 18  1  0
 17 57  1  0
 18 19  1  0
 18 20  1  0
 20 21  1  0
 20 37  2  0
 21 22  1  0
 21 58  1  0
 22 23  1  6
 22 24  1  0
 22 30  1  0
 24 29  1  0
 24 25  2  0
 25 26  1  0
 25 59  1  0
 26 27  2  0
 26 60  1  0
 27 28  1  0
 27 61  1  0
 28 29  2  0
 28 62  1  0
 29 63  1  0
 30 36  1  0
 30 31  2  0
 31 32  1  0
 31 64  1  0
 32 33  2  0
 32 65  1  0
 33 34  1  0
 33 35  1  0
 35 36  2  0
 35 66  1  0
 36 67  1  0
 37 38  1  0
 39 40  2  0
 39 68  1  0
 40 69  1  0
M  CHG  1  37   1
M  END
>  <DOCK_score>  (1) 
-57.182232

>  <SMILES>  (1) 
CCc1cccc(C)c1CNc1ccc(-c2c[nH]c(N[C@@H](c3ccccc3)c3ccc(F)cc3)[nH+]2)cc1

$$$$
