O=C1CCCC(Nc2ccc(-c3n[nH]cc3C[NH2+]C3CC3)o2)=C1Br
     RDKit          3D

 44 47  0  0  0  0  0  0  0  0999 V2000
  126.1657  137.2134  166.1312 O   0  0  0  0  0  0  0  0  0  0  0  0
  126.7261  136.9932  165.0752 C   0  0  0  0  0  0  0  0  0  0  0  0
  128.1527  137.4379  164.8799 C   0  0  0  0  0  0  0  0  0  0  0  0
  128.3895  137.7234  163.3936 C   0  0  0  0  0  0  0  0  0  0  0  0
  128.0519  136.4608  162.5901 C   0  0  0  0  0  0  0  0  0  0  0  0
  126.6258  136.0636  162.8633 C   0  0  0  0  0  0  0  0  0  0  0  0
  125.9132  135.4179  161.8959 N   0  0  0  0  0  0  0  0  0  0  0  0
  126.5653  134.5970  160.9835 C   0  0  0  0  0  0  0  0  0  0  0  0
  126.0368  133.4998  160.3855 C   0  0  0  0  0  0  0  0  0  0  0  0
  127.0319  132.9729  159.5404 C   0  0  0  0  0  0  0  0  0  0  0  0
  128.1241  133.7723  159.6716 C   0  0  0  0  0  0  0  0  0  0  0  0
  129.4140  133.5967  158.9726 C   0  0  0  0  0  0  0  0  0  0  0  0
  129.7060  132.6435  158.1098 N   0  0  0  0  0  0  0  0  0  0  0  0
  131.0254  132.8351  157.6804 N   0  0  0  0  0  0  0  0  0  0  0  0
  131.5027  132.2803  157.0438 H   0  0  0  0  0  0  0  0  0  0  0  0
  131.5182  133.9261  158.3061 C   0  0  0  0  0  0  0  0  0  0  0  0
  130.5499  134.4230  159.1051 C   0  0  0  0  0  0  0  0  0  0  0  0
  130.6636  135.6410  159.9852 C   0  0  0  0  0  0  0  0  0  0  0  0
  132.0040  136.2248  159.8427 N   0  0  0  0  0  0  0  0  0  0  0  0
  132.6976  135.5455  160.1174 H   0  0  0  0  0  0  0  0  0  0  0  0
  132.1550  136.4895  158.8808 H   0  0  0  0  0  0  0  0  0  0  0  0
  132.1149  137.4121  160.7003 C   0  0  0  0  0  0  0  0  0  0  0  0
  131.7521  138.7649  160.0847 C   0  0  0  0  0  0  0  0  0  0  0  0
  133.2156  138.4221  160.3701 C   0  0  0  0  0  0  0  0  0  0  0  0
  127.8281  134.7529  160.5492 O   0  0  0  0  0  0  0  0  0  0  0  0
  126.0411  136.3302  164.0523 C   0  0  0  0  0  0  0  0  0  0  0  0
  124.2510  135.7926  164.3399 Br  0  0  0  0  0  0  0  0  0  0  0  0
  128.3346  138.3434  165.4586 H   0  0  0  0  0  0  0  0  0  0  0  0
  128.8286  136.6498  165.2119 H   0  0  0  0  0  0  0  0  0  0  0  0
  127.7500  138.5460  163.0734 H   0  0  0  0  0  0  0  0  0  0  0  0
  129.4343  137.9899  163.2350 H   0  0  0  0  0  0  0  0  0  0  0  0
  128.7178  135.6496  162.8843 H   0  0  0  0  0  0  0  0  0  0  0  0
  128.1751  136.6644  161.5264 H   0  0  0  0  0  0  0  0  0  0  0  0
  124.9513  135.5318  161.8448 H   0  0  0  0  0  0  0  0  0  0  0  0
  125.0411  133.1068  160.5287 H   0  0  0  0  0  0  0  0  0  0  0  0
  126.9458  132.0991  158.9116 H   0  0  0  0  0  0  0  0  0  0  0  0
  132.5114  134.3325  158.1849 H   0  0  0  0  0  0  0  0  0  0  0  0
  129.9142  136.3749  159.6884 H   0  0  0  0  0  0  0  0  0  0  0  0
  130.5004  135.3549  161.0242 H   0  0  0  0  0  0  0  0  0  0  0  0
  131.8737  137.2565  161.7520 H   0  0  0  0  0  0  0  0  0  0  0  0
  131.4311  138.7739  159.0430 H   0  0  0  0  0  0  0  0  0  0  0  0
  131.2720  139.4996  160.7310 H   0  0  0  0  0  0  0  0  0  0  0  0
  133.6984  138.9313  161.2042 H   0  0  0  0  0  0  0  0  0  0  0  0
  133.8575  138.2055  159.5161 H   0  0  0  0  0  0  0  0  0  0  0  0
  1  2  2  0
  2 26  1  0
  2  3  1  0
  3  4  1  0
  3 28  1  0
  3 29  1  0
  4  5  1  0
  4 30  1  0
  4 31  1  0
  5  6  1  0
  5 32  1  0
  5 33  1  0
  6  7  1  0
  6 26  2  0
  7  8  1  0
  7 34  1  0
  8 25  1  0
  8  9  2  0
  9 10  1  0
  9 35  1  0
 10 11  2  0
 10 36  1  0
 11 12  1  0
 11 25  1  0
 12 17  1  0
 12 13  2  0
 13 14  1  0
 14 15  1  0
 14 16  1  0
 16 17  2  0
 16 37  1  0
 17 18  1  0
 18 19  1  0
 18 38  1  0
 18 39  1  0
 19 20  1  0
 19 21  1  0
 19 22  1  0
 22 24  1  0
 22 23  1  0
 22 40  1  0
 23 24  1  0
 23 41  1  0
 23 42  1  0
 24 43  1  0
 24 44  1  0
 26 27  1  0
M  CHG  1  19   1
M  END
>  <DOCK_score>  (1) 
-40.949707

>  <SMILES>  (1) 
O=C1CCCC(Nc2ccc(-c3n[nH]cc3C[NH2+]C3CC3)o2)=C1Br

$$$$
