CCc1ccc(-c2c[nH]c(N[C@H](c3ccc(F)cc3)c3ccc(NC4=CCC(=O)N4)cc3)[nH+]2)cc1
     RDKit          3D

 62 66  0  0  1  0  0  0  0  0999 V2000
  130.4686  128.7700  151.3963 C   0  0  0  0  0  0  0  0  0  0  0  0
  131.7171  129.4925  151.9081 C   0  0  0  0  0  0  0  0  0  0  0  0
  131.3836  130.2332  153.1774 C   0  0  0  0  0  0  0  0  0  0  0  0
  131.5270  129.6035  154.4010 C   0  0  0  0  0  0  0  0  0  0  0  0
  131.2228  130.2771  155.5664 C   0  0  0  0  0  0  0  0  0  0  0  0
  130.7705  131.5943  155.5090 C   0  0  0  0  0  0  0  0  0  0  0  0
  130.4419  132.3237  156.7581 C   0  0  0  0  0  0  0  0  0  0  0  0
  129.9774  131.7712  157.9061 C   0  0  0  0  0  0  0  0  0  0  0  0
  129.8085  132.7980  158.8028 N   0  0  0  0  0  0  0  0  0  0  0  0
  129.4877  132.7176  159.7147 H   0  0  0  0  0  0  0  0  0  0  0  0
  130.1749  133.9490  158.1759 C   0  0  0  0  0  0  0  0  0  0  0  0
  130.1516  135.2150  158.7359 N   0  0  0  0  0  0  0  0  0  0  0  0
  129.7036  135.3960  160.1189 C   0  0  2  0  0  0  0  0  0  0  0  0
  130.0891  134.5837  160.7350 H   0  0  0  0  0  0  0  0  0  0  0  0
  128.1971  135.3891  160.1638 C   0  0  0  0  0  0  0  0  0  0  0  0
  127.5418  134.9248  161.2890 C   0  0  0  0  0  0  0  0  0  0  0  0
  126.1606  134.9233  161.3335 C   0  0  0  0  0  0  0  0  0  0  0  0
  125.4330  135.3770  160.2463 C   0  0  0  0  0  0  0  0  0  0  0  0
  124.0826  135.3708  160.2865 F   0  0  0  0  0  0  0  0  0  0  0  0
  126.0904  135.8364  159.1177 C   0  0  0  0  0  0  0  0  0  0  0  0
  127.4718  135.8419  159.0776 C   0  0  0  0  0  0  0  0  0  0  0  0
  130.2158  136.7121  160.6447 C   0  0  0  0  0  0  0  0  0  0  0  0
  129.8564  137.8918  160.0189 C   0  0  0  0  0  0  0  0  0  0  0  0
  130.3236  139.0997  160.4983 C   0  0  0  0  0  0  0  0  0  0  0  0
  131.1555  139.1289  161.6105 C   0  0  0  0  0  0  0  0  0  0  0  0
  131.6301  140.3493  162.0984 N   0  0  0  0  0  0  0  0  0  0  0  0
  131.3304  140.7424  163.3984 C   0  0  0  0  0  0  0  0  0  0  0  0
  130.2173  140.3949  164.0400 C   0  0  0  0  0  0  0  0  0  0  0  0
  130.3005  141.0324  165.4117 C   0  0  0  0  0  0  0  0  0  0  0  0
  131.6247  141.7692  165.3901 C   0  0  0  0  0  0  0  0  0  0  0  0
  132.1086  142.4289  166.2854 O   0  0  0  0  0  0  0  0  0  0  0  0
  132.1540  141.5412  164.1723 N   0  0  0  0  0  0  0  0  0  0  0  0
  131.5192  137.9415  162.2333 C   0  0  0  0  0  0  0  0  0  0  0  0
  131.0438  136.7375  161.7520 C   0  0  0  0  0  0  0  0  0  0  0  0
  130.5482  133.6622  156.9527 N   0  0  0  0  0  0  0  0  0  0  0  0
  130.8533  134.3041  156.2925 H   0  0  0  0  0  0  0  0  0  0  0  0
  130.6227  132.2215  154.2732 C   0  0  0  0  0  0  0  0  0  0  0  0
  130.9353  131.5400  153.1146 C   0  0  0  0  0  0  0  0  0  0  0  0
  129.6838  129.4994  151.1956 H   0  0  0  0  0  0  0  0  0  0  0  0
  130.7098  128.2340  150.4784 H   0  0  0  0  0  0  0  0  0  0  0  0
  130.1229  128.0627  152.1501 H   0  0  0  0  0  0  0  0  0  0  0  0
  132.0625  130.1991  151.1546 H   0  0  0  0  0  0  0  0  0  0  0  0
  132.5015  128.7622  152.1092 H   0  0  0  0  0  0  0  0  0  0  0  0
  131.8775  128.5828  154.4442 H   0  0  0  0  0  0  0  0  0  0  0  0
  131.3352  129.7848  156.5210 H   0  0  0  0  0  0  0  0  0  0  0  0
  129.7781  130.7244  158.0818 H   0  0  0  0  0  0  0  0  0  0  0  0
  130.4318  135.9820  158.2126 H   0  0  0  0  0  0  0  0  0  0  0  0
  128.1095  134.5668  162.1352 H   0  0  0  0  0  0  0  0  0  0  0  0
  125.6488  134.5643  162.2142 H   0  0  0  0  0  0  0  0  0  0  0  0
  125.5239  136.1901  158.2690 H   0  0  0  0  0  0  0  0  0  0  0  0
  127.9848  136.2003  158.1973 H   0  0  0  0  0  0  0  0  0  0  0  0
  129.2094  137.8685  159.1545 H   0  0  0  0  0  0  0  0  0  0  0  0
  130.0428  140.0206  160.0089 H   0  0  0  0  0  0  0  0  0  0  0  0
  132.1682  140.9224  161.5303 H   0  0  0  0  0  0  0  0  0  0  0  0
  129.4145  139.7801  163.6605 H   0  0  0  0  0  0  0  0  0  0  0  0
  130.2997  140.2688  166.1896 H   0  0  0  0  0  0  0  0  0  0  0  0
  129.4763  141.7300  165.5605 H   0  0  0  0  0  0  0  0  0  0  0  0
  133.0074  141.8934  163.8747 H   0  0  0  0  0  0  0  0  0  0  0  0
  132.1696  137.9603  163.0952 H   0  0  0  0  0  0  0  0  0  0  0  0
  131.3222  135.8143  162.2386 H   0  0  0  0  0  0  0  0  0  0  0  0
  130.2679  133.2404  154.2227 H   0  0  0  0  0  0  0  0  0  0  0  0
  130.8254  132.0266  152.1566 H   0  0  0  0  0  0  0  0  0  0  0  0
  1  2  1  0
  1 39  1  0
  1 40  1  0
  1 41  1  0
  2  3  1  0
  2 42  1  0
  2 43  1  0
  3 38  2  0
  3  4  1  0
  4  5  2  0
  4 44  1  0
  5  6  1  0
  5 45  1  0
  6  7  1  0
  6 37  2  0
  7 35  1  0
  7  8  2  0
  8  9  1  0
  8 46  1  0
  9 10  1  0
  9 11  1  0
 11 12  1  0
 11 35  2  0
 12 13  1  0
 12 47  1  0
 13 14  1  1
 13 15  1  0
 13 22  1  0
 15 21  1  0
 15 16  2  0
 16 17  1  0
 16 48  1  0
 17 18  2  0
 17 49  1  0
 18 19  1  0
 18 20  1  0
 20 21  2  0
 20 50  1  0
 21 51  1  0
 22 34  1  0
 22 23  2  0
 23 24  1  0
 23 52  1  0
 24 25  2  0
 24 53  1  0
 25 26  1  0
 25 33  1  0
 26 27  1  0
 26 54  1  0
 27 32  1  0
 27 28  2  0
 28 29  1  0
 28 55  1  0
 29 30  1  0
 29 56  1  0
 29 57  1  0
 30 31  2  0
 30 32  1  0
 32 58  1  0
 33 34  2  0
 33 59  1  0
 34 60  1  0
 35 36  1  0
 37 38  1  0
 37 61  1  0
 38 62  1  0
M  CHG  1  35   1
M  END
>  <DOCK_score>  (1) 
-60.58197

>  <SMILES>  (1) 
CCc1ccc(-c2c[nH]c(N[C@H](c3ccc(F)cc3)c3ccc(NC4=CCC(=O)N4)cc3)[nH+]2)cc1

$$$$
