CCCCc1ccc(-c2c[nH]c(N[C@H](Cc3ccccc3)c3ccccc3)[nH+]2)cc1
     RDKit          3D

 60 63  0  0  1  0  0  0  0  0999 V2000
  128.5646  129.5058  151.0014 C   0  0  0  0  0  0  0  0  0  0  0  0
  129.8015  130.1297  151.6507 C   0  0  0  0  0  0  0  0  0  0  0  0
  130.7631  129.0218  152.0850 C   0  0  0  0  0  0  0  0  0  0  0  0
  132.0006  129.6455  152.7347 C   0  0  0  0  0  0  0  0  0  0  0  0
  131.5843  130.4498  153.9391 C   0  0  0  0  0  0  0  0  0  0  0  0
  131.5195  129.8463  155.1818 C   0  0  0  0  0  0  0  0  0  0  0  0
  131.1385  130.5777  156.2884 C   0  0  0  0  0  0  0  0  0  0  0  0
  130.8186  131.9274  156.1517 C   0  0  0  0  0  0  0  0  0  0  0  0
  130.4086  132.7190  157.3373 C   0  0  0  0  0  0  0  0  0  0  0  0
  129.7590  132.2435  158.4285 C   0  0  0  0  0  0  0  0  0  0  0  0
  129.5770  133.3070  159.2789 N   0  0  0  0  0  0  0  0  0  0  0  0
  129.1411  133.2819  160.1451 H   0  0  0  0  0  0  0  0  0  0  0  0
  130.1212  134.4022  158.6818 C   0  0  0  0  0  0  0  0  0  0  0  0
  130.1468  135.6807  159.2122 N   0  0  0  0  0  0  0  0  0  0  0  0
  129.5530  135.9407  160.5260 C   0  0  2  0  0  0  0  0  0  0  0  0
  128.6248  135.3773  160.6232 H   0  0  0  0  0  0  0  0  0  0  0  0
  129.2593  137.4357  160.6661 C   0  0  0  0  0  0  0  0  0  0  0  0
  130.5424  138.2144  160.5318 C   0  0  0  0  0  0  0  0  0  0  0  0
  131.2987  138.4992  161.6532 C   0  0  0  0  0  0  0  0  0  0  0  0
  132.4782  139.2094  161.5294 C   0  0  0  0  0  0  0  0  0  0  0  0
  132.8960  139.6438  160.2854 C   0  0  0  0  0  0  0  0  0  0  0  0
  132.1370  139.3636  159.1645 C   0  0  0  0  0  0  0  0  0  0  0  0
  130.9602  138.6489  159.2878 C   0  0  0  0  0  0  0  0  0  0  0  0
  130.5146  135.5143  161.6051 C   0  0  0  0  0  0  0  0  0  0  0  0
  130.0344  135.0752  162.8249 C   0  0  0  0  0  0  0  0  0  0  0  0
  130.9164  134.6800  163.8132 C   0  0  0  0  0  0  0  0  0  0  0  0
  132.2787  134.7323  163.5850 C   0  0  0  0  0  0  0  0  0  0  0  0
  132.7591  135.1763  162.3671 C   0  0  0  0  0  0  0  0  0  0  0  0
  131.8771  135.5674  161.3773 C   0  0  0  0  0  0  0  0  0  0  0  0
  130.6121  134.0480  157.5193 N   0  0  0  0  0  0  0  0  0  0  0  0
  131.0529  134.6408  156.8906 H   0  0  0  0  0  0  0  0  0  0  0  0
  130.8800  132.5291  154.8960 C   0  0  0  0  0  0  0  0  0  0  0  0
  131.2671  131.7890  153.7974 C   0  0  0  0  0  0  0  0  0  0  0  0
  128.8658  128.9242  150.1302 H   0  0  0  0  0  0  0  0  0  0  0  0
  128.0671  128.8537  151.7193 H   0  0  0  0  0  0  0  0  0  0  0  0
  127.8795  130.2952  150.6920 H   0  0  0  0  0  0  0  0  0  0  0  0
  129.5003  130.7114  152.5219 H   0  0  0  0  0  0  0  0  0  0  0  0
  130.2989  130.7818  150.9328 H   0  0  0  0  0  0  0  0  0  0  0  0
  131.0644  128.4400  151.2138 H   0  0  0  0  0  0  0  0  0  0  0  0
  130.2658  128.3696  152.8029 H   0  0  0  0  0  0  0  0  0  0  0  0
  132.4975  130.2977  152.0164 H   0  0  0  0  0  0  0  0  0  0  0  0
  132.6852  128.8563  153.0437 H   0  0  0  0  0  0  0  0  0  0  0  0
  131.7675  128.8003  155.2865 H   0  0  0  0  0  0  0  0  0  0  0  0
  131.0888  130.1054  157.2584 H   0  0  0  0  0  0  0  0  0  0  0  0
  129.4445  131.2241  158.5967 H   0  0  0  0  0  0  0  0  0  0  0  0
  130.5578  136.4044  158.7139 H   0  0  0  0  0  0  0  0  0  0  0  0
  128.5636  137.7439  159.8855 H   0  0  0  0  0  0  0  0  0  0  0  0
  128.8175  137.6291  161.6435 H   0  0  0  0  0  0  0  0  0  0  0  0
  130.9700  138.1636  162.6258 H   0  0  0  0  0  0  0  0  0  0  0  0
  133.0709  139.4287  162.4051 H   0  0  0  0  0  0  0  0  0  0  0  0
  133.8152  140.2026  160.1892 H   0  0  0  0  0  0  0  0  0  0  0  0
  132.4633  139.7033  158.1927 H   0  0  0  0  0  0  0  0  0  0  0  0
  130.3670  138.4301  158.4121 H   0  0  0  0  0  0  0  0  0  0  0  0
  128.9701  135.0378  163.0044 H   0  0  0  0  0  0  0  0  0  0  0  0
  130.5412  134.3328  164.7644 H   0  0  0  0  0  0  0  0  0  0  0  0
  132.9680  134.4260  164.3580 H   0  0  0  0  0  0  0  0  0  0  0  0
  133.8235  135.2171  162.1888 H   0  0  0  0  0  0  0  0  0  0  0  0
  132.2523  135.9143  160.4259 H   0  0  0  0  0  0  0  0  0  0  0  0
  130.6283  133.5734  154.7836 H   0  0  0  0  0  0  0  0  0  0  0  0
  131.3189  132.2552  152.8245 H   0  0  0  0  0  0  0  0  0  0  0  0
  1  2  1  0
  1 34  1  0
  1 35  1  0
  1 36  1  0
  2  3  1  0
  2 37  1  0
  2 38  1  0
  3  4  1  0
  3 39  1  0
  3 40  1  0
  4  5  1  0
  4 41  1  0
  4 42  1  0
  5 33  2  0
  5  6  1  0
  6  7  2  0
  6 43  1  0
  7  8  1  0
  7 44  1  0
  8  9  1  0
  8 32  2  0
  9 30  1  0
  9 10  2  0
 10 11  1  0
 10 45  1  0
 11 12  1  0
 11 13  1  0
 13 14  1  0
 13 30  2  0
 14 15  1  0
 14 46  1  0
 15 16  1  6
 15 17  1  0
 15 24  1  0
 17 18  1  0
 17 47  1  0
 17 48  1  0
 18 23  1  0
 18 19  2  0
 19 20  1  0
 19 49  1  0
 20 21  2  0
 20 50  1  0
 21 22  1  0
 21 51  1  0
 22 23  2  0
 22 52  1  0
 23 53  1  0
 24 29  1  0
 24 25  2  0
 25 26  1  0
 25 54  1  0
 26 27  2  0
 26 55  1  0
 27 28  1  0
 27 56  1  0
 28 29  2  0
 28 57  1  0
 29 58  1  0
 30 31  1  0
 32 33  1  0
 32 59  1  0
 33 60  1  0
M  CHG  1  30   1
M  END
>  <DOCK_score>  (1) 
-60.053066

>  <SMILES>  (1) 
CCCCc1ccc(-c2c[nH]c(N[C@H](Cc3ccccc3)c3ccccc3)[nH+]2)cc1

$$$$
