C1=C(c2cccc(Oc3ccncc3)c2)CC[N@@H+](C(c2ccccc2)c2ccccc2)C1
     RDKit          3D

 59 63  0  0  1  0  0  0  0  0999 V2000
  131.6330  136.2918  160.8551 C   0  0  0  0  0  0  0  0  0  0  0  0
  132.8857  135.9218  160.6980 C   0  0  0  0  0  0  0  0  0  0  0  0
  133.9592  136.8255  161.1625 C   0  0  0  0  0  0  0  0  0  0  0  0
  134.4930  137.7818  160.2971 C   0  0  0  0  0  0  0  0  0  0  0  0
  135.4917  138.6271  160.7353 C   0  0  0  0  0  0  0  0  0  0  0  0
  135.9737  138.5233  162.0272 C   0  0  0  0  0  0  0  0  0  0  0  0
  135.4525  137.5717  162.8933 C   0  0  0  0  0  0  0  0  0  0  0  0
  135.9296  137.4743  164.1620 O   0  0  0  0  0  0  0  0  0  0  0  0
  136.9768  136.6407  164.3868 C   0  0  0  0  0  0  0  0  0  0  0  0
  137.5165  136.4999  165.6631 C   0  0  0  0  0  0  0  0  0  0  0  0
  138.5777  135.6385  165.8515 C   0  0  0  0  0  0  0  0  0  0  0  0
  139.0870  134.9617  164.8397 N   0  0  0  0  0  0  0  0  0  0  0  0
  138.6070  135.0724  163.6154 C   0  0  0  0  0  0  0  0  0  0  0  0
  137.5431  135.9085  163.3459 C   0  0  0  0  0  0  0  0  0  0  0  0
  134.4460  136.7218  162.4650 C   0  0  0  0  0  0  0  0  0  0  0  0
  133.2645  134.6120  160.0630 C   0  0  0  0  0  0  0  0  0  0  0  0
  132.0456  133.6866  160.0303 C   0  0  0  0  0  0  0  0  0  0  0  0
  130.9088  134.4273  159.4605 N   0  0  1  0  0  0  0  0  0  0  0  0
  131.1922  134.8749  158.6018 H   0  0  0  0  0  0  0  0  0  0  0  0
  129.8033  133.4987  159.1893 C   0  0  0  0  0  0  0  0  0  0  0  0
  128.6403  134.2591  158.6059 C   0  0  0  0  0  0  0  0  0  0  0  0
  127.3478  133.8221  158.8275 C   0  0  0  0  0  0  0  0  0  0  0  0
  126.2810  134.5198  158.2927 C   0  0  0  0  0  0  0  0  0  0  0  0
  126.5067  135.6543  157.5359 C   0  0  0  0  0  0  0  0  0  0  0  0
  127.7996  136.0881  157.3094 C   0  0  0  0  0  0  0  0  0  0  0  0
  128.8661  135.3934  157.8487 C   0  0  0  0  0  0  0  0  0  0  0  0
  130.2586  132.4480  158.2098 C   0  0  0  0  0  0  0  0  0  0  0  0
  130.1041  132.6556  156.8519 C   0  0  0  0  0  0  0  0  0  0  0  0
  130.5254  131.6934  155.9532 C   0  0  0  0  0  0  0  0  0  0  0  0
  131.0937  130.5201  156.4128 C   0  0  0  0  0  0  0  0  0  0  0  0
  131.2434  130.3102  157.7709 C   0  0  0  0  0  0  0  0  0  0  0  0
  130.8258  131.2740  158.6694 C   0  0  0  0  0  0  0  0  0  0  0  0
  130.4709  135.4445  160.4234 C   0  0  0  0  0  0  0  0  0  0  0  0
  131.4314  137.2480  161.3147 H   0  0  0  0  0  0  0  0  0  0  0  0
  134.1218  137.8625  159.2860 H   0  0  0  0  0  0  0  0  0  0  0  0
  135.9013  139.3690  160.0658 H   0  0  0  0  0  0  0  0  0  0  0  0
  136.7581  139.1850  162.3636 H   0  0  0  0  0  0  0  0  0  0  0  0
  137.1072  137.0545  166.4947 H   0  0  0  0  0  0  0  0  0  0  0  0
  138.9994  135.5198  166.8387 H   0  0  0  0  0  0  0  0  0  0  0  0
  139.0521  134.5009  162.8143 H   0  0  0  0  0  0  0  0  0  0  0  0
  137.1546  135.9940  162.3419 H   0  0  0  0  0  0  0  0  0  0  0  0
  134.0398  135.9810  163.1377 H   0  0  0  0  0  0  0  0  0  0  0  0
  133.6132  134.7893  159.0456 H   0  0  0  0  0  0  0  0  0  0  0  0
  134.0601  134.1443  160.6429 H   0  0  0  0  0  0  0  0  0  0  0  0
  131.8023  133.3657  161.0433 H   0  0  0  0  0  0  0  0  0  0  0  0
  132.2630  132.8167  159.4105 H   0  0  0  0  0  0  0  0  0  0  0  0
  129.4948  133.0199  160.1187 H   0  0  0  0  0  0  0  0  0  0  0  0
  127.1713  132.9357  159.4189 H   0  0  0  0  0  0  0  0  0  0  0  0
  125.2711  134.1784  158.4659 H   0  0  0  0  0  0  0  0  0  0  0  0
  125.6734  136.1992  157.1179 H   0  0  0  0  0  0  0  0  0  0  0  0
  127.9763  136.9718  156.7145 H   0  0  0  0  0  0  0  0  0  0  0  0
  129.8760  135.7346  157.6752 H   0  0  0  0  0  0  0  0  0  0  0  0
  129.6571  133.5709  156.4930 H   0  0  0  0  0  0  0  0  0  0  0  0
  130.4081  131.8571  154.8922 H   0  0  0  0  0  0  0  0  0  0  0  0
  131.4204  129.7672  155.7108 H   0  0  0  0  0  0  0  0  0  0  0  0
  131.6871  129.3932  158.1299 H   0  0  0  0  0  0  0  0  0  0  0  0
  130.9427  131.1101  159.7304 H   0  0  0  0  0  0  0  0  0  0  0  0
  129.7152  136.0785  159.9594 H   0  0  0  0  0  0  0  0  0  0  0  0
  130.0423  134.9533  161.2970 H   0  0  0  0  0  0  0  0  0  0  0  0
  1 33  1  0
  1  2  2  0
  1 34  1  0
  2  3  1  0
  2 16  1  0
  3 15  1  0
  3  4  2  0
  4  5  1  0
  4 35  1  0
  5  6  2  0
  5 36  1  0
  6  7  1  0
  6 37  1  0
  7  8  1  0
  7 15  2  0
  8  9  1  0
  9 14  1  0
  9 10  2  0
 10 11  1  0
 10 38  1  0
 11 12  2  0
 11 39  1  0
 12 13  1  0
 13 14  2  0
 13 40  1  0
 14 41  1  0
 15 42  1  0
 16 17  1  0
 16 43  1  0
 16 44  1  0
 17 18  1  0
 17 45  1  0
 17 46  1  0
 18 19  1  6
 18 20  1  0
 18 33  1  0
 20 21  1  0
 20 27  1  0
 20 47  1  0
 21 26  1  0
 21 22  2  0
 22 23  1  0
 22 48  1  0
 23 24  2  0
 23 49  1  0
 24 25  1  0
 24 50  1  0
 25 26  2  0
 25 51  1  0
 26 52  1  0
 27 32  1  0
 27 28  2  0
 28 29  1  0
 28 53  1  0
 29 30  2  0
 29 54  1  0
 30 31  1  0
 30 55  1  0
 31 32  2  0
 31 56  1  0
 32 57  1  0
 33 58  1  0
 33 59  1  0
M  CHG  1  18   1
M  END
>  <DOCK_score>  (1) 
-57.600025

>  <SMILES>  (1) 
C1=C(c2cccc(Oc3ccncc3)c2)CC[N@@H+](C(c2ccccc2)c2ccccc2)C1

$$$$
