CCc1ccc(-c2c[nH]c(N[C@@H](C3=CN(c4ccccc4)CCC3)c3ccccc3)[nH+]2)cc1
     RDKit          3D

 64 68  0  0  1  0  0  0  0  0999 V2000
  130.3307  128.3689  151.7503 C   0  0  0  0  0  0  0  0  0  0  0  0
  131.3051  129.5370  151.9123 C   0  0  0  0  0  0  0  0  0  0  0  0
  131.0312  130.2428  153.2153 C   0  0  0  0  0  0  0  0  0  0  0  0
  131.6837  129.8403  154.3668 C   0  0  0  0  0  0  0  0  0  0  0  0
  131.4413  130.4864  155.5621 C   0  0  0  0  0  0  0  0  0  0  0  0
  130.5287  131.5388  155.6097 C   0  0  0  0  0  0  0  0  0  0  0  0
  130.2598  132.2334  156.8924 C   0  0  0  0  0  0  0  0  0  0  0  0
  129.7787  131.6617  158.0240 C   0  0  0  0  0  0  0  0  0  0  0  0
  129.6819  132.6585  158.9643 N   0  0  0  0  0  0  0  0  0  0  0  0
  129.3681  132.5591  159.8767 H   0  0  0  0  0  0  0  0  0  0  0  0
  130.1072  133.8113  158.3792 C   0  0  0  0  0  0  0  0  0  0  0  0
  130.1662  135.0519  158.9908 N   0  0  0  0  0  0  0  0  0  0  0  0
  129.7483  135.2008  160.3870 C   0  0  1  0  0  0  0  0  0  0  0  0
  130.0936  134.3424  160.9632 H   0  0  0  0  0  0  0  0  0  0  0  0
  130.3445  136.4615  160.9580 C   0  0  0  0  0  0  0  0  0  0  0  0
  130.6148  136.5021  162.2408 C   0  0  0  0  0  0  0  0  0  0  0  0
  131.1578  137.6321  162.8402 N   0  0  0  0  0  0  0  0  0  0  0  0
  131.1803  137.7567  164.2316 C   0  0  0  0  0  0  0  0  0  0  0  0
  131.1215  139.0144  164.8188 C   0  0  0  0  0  0  0  0  0  0  0  0
  131.1382  139.1337  166.1947 C   0  0  0  0  0  0  0  0  0  0  0  0
  131.2249  138.0038  166.9872 C   0  0  0  0  0  0  0  0  0  0  0  0
  131.2893  136.7506  166.4057 C   0  0  0  0  0  0  0  0  0  0  0  0
  131.2673  136.6236  165.0309 C   0  0  0  0  0  0  0  0  0  0  0  0
  131.7081  138.6943  161.9855 C   0  0  0  0  0  0  0  0  0  0  0  0
  130.7234  138.9182  160.8287 C   0  0  0  0  0  0  0  0  0  0  0  0
  130.6086  137.6142  160.0318 C   0  0  0  0  0  0  0  0  0  0  0  0
  128.2449  135.2802  160.4557 C   0  0  0  0  0  0  0  0  0  0  0  0
  127.5782  134.8086  161.5711 C   0  0  0  0  0  0  0  0  0  0  0  0
  126.1995  134.8853  161.6361 C   0  0  0  0  0  0  0  0  0  0  0  0
  125.4869  135.4249  160.5817 C   0  0  0  0  0  0  0  0  0  0  0  0
  126.1533  135.8922  159.4643 C   0  0  0  0  0  0  0  0  0  0  0  0
  127.5322  135.8193  159.4012 C   0  0  0  0  0  0  0  0  0  0  0  0
  130.4572  133.5522  157.1430 N   0  0  0  0  0  0  0  0  0  0  0  0
  130.8002  134.2002  156.5079 H   0  0  0  0  0  0  0  0  0  0  0  0
  129.8701  131.9364  154.4475 C   0  0  0  0  0  0  0  0  0  0  0  0
  130.1245  131.2868  153.2568 C   0  0  0  0  0  0  0  0  0  0  0  0
  130.5286  127.8587  150.8075 H   0  0  0  0  0  0  0  0  0  0  0  0
  130.4616  127.6697  152.5762 H   0  0  0  0  0  0  0  0  0  0  0  0
  129.3078  128.7456  151.7518 H   0  0  0  0  0  0  0  0  0  0  0  0
  132.3277  129.1608  151.9105 H   0  0  0  0  0  0  0  0  0  0  0  0
  131.1739  130.2367  151.0861 H   0  0  0  0  0  0  0  0  0  0  0  0
  132.3870  129.0216  154.3296 H   0  0  0  0  0  0  0  0  0  0  0  0
  131.9547  130.1743  156.4595 H   0  0  0  0  0  0  0  0  0  0  0  0
  129.5206  130.6218  158.1598 H   0  0  0  0  0  0  0  0  0  0  0  0
  130.4842  135.8224  158.4948 H   0  0  0  0  0  0  0  0  0  0  0  0
  130.4097  135.6329  162.8481 H   0  0  0  0  0  0  0  0  0  0  0  0
  131.0583  139.8975  164.2005 H   0  0  0  0  0  0  0  0  0  0  0  0
  131.0880  140.1107  166.6521 H   0  0  0  0  0  0  0  0  0  0  0  0
  131.2425  138.0999  168.0628 H   0  0  0  0  0  0  0  0  0  0  0  0
  131.3573  135.8702  167.0277 H   0  0  0  0  0  0  0  0  0  0  0  0
  131.3181  135.6448  164.5773 H   0  0  0  0  0  0  0  0  0  0  0  0
  131.8165  139.6133  162.5615 H   0  0  0  0  0  0  0  0  0  0  0  0
  132.6775  138.3878  161.5928 H   0  0  0  0  0  0  0  0  0  0  0  0
  129.7476  139.1955  161.2272 H   0  0  0  0  0  0  0  0  0  0  0  0
  131.0955  139.7108  160.1795 H   0  0  0  0  0  0  0  0  0  0  0  0
  131.5370  137.4356  159.4894 H   0  0  0  0  0  0  0  0  0  0  0  0
  129.7881  137.6998  159.3193 H   0  0  0  0  0  0  0  0  0  0  0  0
  128.1347  134.3832  162.3933 H   0  0  0  0  0  0  0  0  0  0  0  0
  125.6790  134.5205  162.5092 H   0  0  0  0  0  0  0  0  0  0  0  0
  124.4095  135.4818  160.6309 H   0  0  0  0  0  0  0  0  0  0  0  0
  125.5965  136.3138  158.6405 H   0  0  0  0  0  0  0  0  0  0  0  0
  128.0529  136.1840  158.5280 H   0  0  0  0  0  0  0  0  0  0  0  0
  129.1617  132.7510  154.4788 H   0  0  0  0  0  0  0  0  0  0  0  0
  129.6150  131.5942  152.3555 H   0  0  0  0  0  0  0  0  0  0  0  0
  1  2  1  0
  1 37  1  0
  1 38  1  0
  1 39  1  0
  2  3  1  0
  2 40  1  0
  2 41  1  0
  3 36  2  0
  3  4  1  0
  4  5  2  0
  4 42  1  0
  5  6  1  0
  5 43  1  0
  6  7  1  0
  6 35  2  0
  7 33  1  0
  7  8  2  0
  8  9  1  0
  8 44  1  0
  9 10  1  0
  9 11  1  0
 11 12  1  0
 11 33  2  0
 12 13  1  0
 12 45  1  0
 13 14  1  1
 13 15  1  0
 13 27  1  0
 15 26  1  0
 15 16  2  0
 16 17  1  0
 16 46  1  0
 17 18  1  0
 17 24  1  0
 18 23  1  0
 18 19  2  0
 19 20  1  0
 19 47  1  0
 20 21  2  0
 20 48  1  0
 21 22  1  0
 21 49  1  0
 22 23  2  0
 22 50  1  0
 23 51  1  0
 24 25  1  0
 24 52  1  0
 24 53  1  0
 25 26  1  0
 25 54  1  0
 25 55  1  0
 26 56  1  0
 26 57  1  0
 27 32  1  0
 27 28  2  0
 28 29  1  0
 28 58  1  0
 29 30  2  0
 29 59  1  0
 30 31  1  0
 30 60  1  0
 31 32  2  0
 31 61  1  0
 32 62  1  0
 33 34  1  0
 35 36  1  0
 35 63  1  0
 36 64  1  0
M  CHG  1  33   1
M  END
>  <DOCK_score>  (1) 
-57.900311

>  <SMILES>  (1) 
CCc1ccc(-c2c[nH]c(N[C@@H](C3=CN(c4ccccc4)CCC3)c3ccccc3)[nH+]2)cc1

$$$$
