Clc1cccnc1CNc1cnc(C[NH2+]C(Cc2ccccc2)Cc2ccccc2)c(Cl)c1
     RDKit          3D

 60 63  0  0  0  0  0  0  0  0999 V2000
  131.1908  139.3037  165.2543 Cl  0  0  0  0  0  0  0  0  0  0  0  0
  129.4998  139.2031  165.6342 C   0  0  0  0  0  0  0  0  0  0  0  0
  129.0178  139.7067  166.8343 C   0  0  0  0  0  0  0  0  0  0  0  0
  127.6610  139.6001  167.0968 C   0  0  0  0  0  0  0  0  0  0  0  0
  126.8373  139.0094  166.1570 C   0  0  0  0  0  0  0  0  0  0  0  0
  127.3289  138.5456  165.0248 N   0  0  0  0  0  0  0  0  0  0  0  0
  128.6147  138.6249  164.7427 C   0  0  0  0  0  0  0  0  0  0  0  0
  129.1253  138.0788  163.4342 C   0  0  0  0  0  0  0  0  0  0  0  0
  128.0076  137.5221  162.6679 N   0  0  0  0  0  0  0  0  0  0  0  0
  128.2358  136.9541  161.4121 C   0  0  0  0  0  0  0  0  0  0  0  0
  129.5195  136.9067  160.8827 C   0  0  0  0  0  0  0  0  0  0  0  0
  129.7392  136.3714  159.6987 N   0  0  0  0  0  0  0  0  0  0  0  0
  128.7621  135.8640  158.9730 C   0  0  0  0  0  0  0  0  0  0  0  0
  129.0714  135.2644  157.6254 C   0  0  0  0  0  0  0  0  0  0  0  0
  130.2608  134.4089  157.7314 N   0  0  0  0  0  0  0  0  0  0  0  0
  130.4678  134.0075  156.8292 H   0  0  0  0  0  0  0  0  0  0  0  0
  131.0459  134.9613  158.0419 H   0  0  0  0  0  0  0  0  0  0  0  0
  130.0057  133.3334  158.6989 C   0  0  0  0  0  0  0  0  0  0  0  0
  129.1884  132.2275  158.0284 C   0  0  0  0  0  0  0  0  0  0  0  0
  129.9568  131.6758  156.8552 C   0  0  0  0  0  0  0  0  0  0  0  0
  129.7942  132.2311  155.5999 C   0  0  0  0  0  0  0  0  0  0  0  0
  130.5027  131.7283  154.5246 C   0  0  0  0  0  0  0  0  0  0  0  0
  131.3659  130.6634  154.7029 C   0  0  0  0  0  0  0  0  0  0  0  0
  131.5246  130.1047  155.9574 C   0  0  0  0  0  0  0  0  0  0  0  0
  130.8200  130.6109  157.0336 C   0  0  0  0  0  0  0  0  0  0  0  0
  131.3376  132.7592  159.1861 C   0  0  0  0  0  0  0  0  0  0  0  0
  131.9171  133.6626  160.2441 C   0  0  0  0  0  0  0  0  0  0  0  0
  132.7643  134.6939  159.8840 C   0  0  0  0  0  0  0  0  0  0  0  0
  133.2920  135.5255  160.8539 C   0  0  0  0  0  0  0  0  0  0  0  0
  132.9810  135.3193  162.1850 C   0  0  0  0  0  0  0  0  0  0  0  0
  132.1380  134.2847  162.5455 C   0  0  0  0  0  0  0  0  0  0  0  0
  131.6061  133.4563  161.5751 C   0  0  0  0  0  0  0  0  0  0  0  0
  127.4568  135.8748  159.4315 C   0  0  0  0  0  0  0  0  0  0  0  0
  126.1806  135.2041  158.4645 Cl  0  0  0  0  0  0  0  0  0  0  0  0
  127.1808  136.4221  160.6751 C   0  0  0  0  0  0  0  0  0  0  0  0
  129.6847  140.1670  167.5483 H   0  0  0  0  0  0  0  0  0  0  0  0
  127.2518  139.9779  168.0221 H   0  0  0  0  0  0  0  0  0  0  0  0
  125.7783  138.9263  166.3525 H   0  0  0  0  0  0  0  0  0  0  0  0
  129.5932  138.8809  162.8635 H   0  0  0  0  0  0  0  0  0  0  0  0
  129.8582  137.2957  163.6286 H   0  0  0  0  0  0  0  0  0  0  0  0
  127.1091  137.5480  163.0326 H   0  0  0  0  0  0  0  0  0  0  0  0
  130.3459  137.3123  161.4475 H   0  0  0  0  0  0  0  0  0  0  0  0
  128.2232  134.6674  157.2900 H   0  0  0  0  0  0  0  0  0  0  0  0
  129.2605  136.0623  156.9074 H   0  0  0  0  0  0  0  0  0  0  0  0
  129.4499  133.7323  159.5475 H   0  0  0  0  0  0  0  0  0  0  0  0
  128.9990  131.4295  158.7463 H   0  0  0  0  0  0  0  0  0  0  0  0
  128.2395  132.6366  157.6812 H   0  0  0  0  0  0  0  0  0  0  0  0
  129.1164  133.0603  155.4597 H   0  0  0  0  0  0  0  0  0  0  0  0
  130.3785  132.1645  153.5444 H   0  0  0  0  0  0  0  0  0  0  0  0
  131.9161  130.2676  153.8620 H   0  0  0  0  0  0  0  0  0  0  0  0
  132.1987  129.2726  156.0966 H   0  0  0  0  0  0  0  0  0  0  0  0
  130.9436  130.1743  158.0135 H   0  0  0  0  0  0  0  0  0  0  0  0
  131.1736  131.7667  159.6059 H   0  0  0  0  0  0  0  0  0  0  0  0
  132.0313  132.6893  158.3483 H   0  0  0  0  0  0  0  0  0  0  0  0
  133.0108  134.8522  158.8446 H   0  0  0  0  0  0  0  0  0  0  0  0
  133.9509  136.3336  160.5723 H   0  0  0  0  0  0  0  0  0  0  0  0
  133.3968  135.9663  162.9432 H   0  0  0  0  0  0  0  0  0  0  0  0
  131.8953  134.1234  163.5855 H   0  0  0  0  0  0  0  0  0  0  0  0
  130.9478  132.6478  161.8569 H   0  0  0  0  0  0  0  0  0  0  0  0
  126.1722  136.4393  161.0609 H   0  0  0  0  0  0  0  0  0  0  0  0
  1  2  1  0
  2  7  2  0
  2  3  1  0
  3  4  2  0
  3 36  1  0
  4  5  1  0
  4 37  1  0
  5  6  2  0
  5 38  1  0
  6  7  1  0
  7  8  1  0
  8  9  1  0
  8 39  1  0
  8 40  1  0
  9 10  1  0
  9 41  1  0
 10 35  1  0
 10 11  2  0
 11 12  1  0
 11 42  1  0
 12 13  2  0
 13 14  1  0
 13 33  1  0
 14 15  1  0
 14 43  1  0
 14 44  1  0
 15 16  1  0
 15 17  1  0
 15 18  1  0
 18 19  1  0
 18 26  1  0
 18 45  1  0
 19 20  1  0
 19 46  1  0
 19 47  1  0
 20 25  1  0
 20 21  2  0
 21 22  1  0
 21 48  1  0
 22 23  2  0
 22 49  1  0
 23 24  1  0
 23 50  1  0
 24 25  2  0
 24 51  1  0
 25 52  1  0
 26 27  1  0
 26 53  1  0
 26 54  1  0
 27 32  1  0
 27 28  2  0
 28 29  1  0
 28 55  1  0
 29 30  2  0
 29 56  1  0
 30 31  1  0
 30 57  1  0
 31 32  2  0
 31 58  1  0
 32 59  1  0
 33 34  1  0
 33 35  2  0
 35 60  1  0
M  CHG  1  15   1
M  END
>  <DOCK_score>  (1) 
-55.923225

>  <SMILES>  (1) 
Clc1cccnc1CNc1cnc(C[NH2+]C(Cc2ccccc2)Cc2ccccc2)c(Cl)c1

$$$$
