Cn1nccc1[C@H](CSCc1cc(O)ccc1F)Nc1[nH]cc(-c2ccc(N)cc2)[nH+]1
     RDKit          3D

 55 58  0  0  1  0  0  0  0  0999 V2000
  127.9267  135.1489  162.9695 C   0  0  0  0  0  0  0  0  0  0  0  0
  127.5668  135.5375  161.6035 N   0  0  0  0  0  0  0  0  0  0  0  0
  126.2674  135.6332  161.0891 N   0  0  0  0  0  0  0  0  0  0  0  0
  126.3498  136.0023  159.8365 C   0  0  0  0  0  0  0  0  0  0  0  0
  127.7022  136.1579  159.5150 C   0  0  0  0  0  0  0  0  0  0  0  0
  128.4286  135.8692  160.6194 C   0  0  0  0  0  0  0  0  0  0  0  0
  129.9312  135.9052  160.7290 C   0  0  2  0  0  0  0  0  0  0  0  0
  130.2600  135.1666  161.4599 H   0  0  0  0  0  0  0  0  0  0  0  0
  130.3766  137.2989  161.1765 C   0  0  0  0  0  0  0  0  0  0  0  0
  132.1854  137.3422  161.3085 S   0  0  0  0  0  0  0  0  0  0  0  0
  132.4962  136.5588  162.9147 C   0  0  0  0  0  0  0  0  0  0  0  0
  133.9218  136.0737  162.9696 C   0  0  0  0  0  0  0  0  0  0  0  0
  134.9179  136.9089  163.4381 C   0  0  0  0  0  0  0  0  0  0  0  0
  136.2291  136.4604  163.4930 C   0  0  0  0  0  0  0  0  0  0  0  0
  137.2093  137.2792  163.9584 O   0  0  0  0  0  0  0  0  0  0  0  0
  136.5404  135.1772  163.0675 C   0  0  0  0  0  0  0  0  0  0  0  0
  135.5433  134.3462  162.5948 C   0  0  0  0  0  0  0  0  0  0  0  0
  134.2339  134.7934  162.5454 C   0  0  0  0  0  0  0  0  0  0  0  0
  133.2597  133.9798  162.0824 F   0  0  0  0  0  0  0  0  0  0  0  0
  130.5235  135.5985  159.4246 N   0  0  0  0  0  0  0  0  0  0  0  0
  130.2617  134.3840  158.8138 C   0  0  0  0  0  0  0  0  0  0  0  0
  129.4700  133.3983  159.3169 N   0  0  0  0  0  0  0  0  0  0  0  0
  128.9919  133.4196  160.1606 H   0  0  0  0  0  0  0  0  0  0  0  0
  129.4734  132.3663  158.4085 C   0  0  0  0  0  0  0  0  0  0  0  0
  130.2662  132.7518  157.3783 C   0  0  0  0  0  0  0  0  0  0  0  0
  130.5679  131.9557  156.1635 C   0  0  0  0  0  0  0  0  0  0  0  0
  130.2237  132.4455  154.9045 C   0  0  0  0  0  0  0  0  0  0  0  0
  130.5098  131.7060  153.7763 C   0  0  0  0  0  0  0  0  0  0  0  0
  131.1303  130.4686  153.8941 C   0  0  0  0  0  0  0  0  0  0  0  0
  131.4138  129.7188  152.7499 N   0  0  0  0  0  0  0  0  0  0  0  0
  131.4697  129.9755  155.1489 C   0  0  0  0  0  0  0  0  0  0  0  0
  131.1908  130.7140  156.2794 C   0  0  0  0  0  0  0  0  0  0  0  0
  130.7311  133.9965  157.6529 N   0  0  0  0  0  0  0  0  0  0  0  0
  131.3188  134.5157  157.0822 H   0  0  0  0  0  0  0  0  0  0  0  0
  127.9705  136.0368  163.6001 H   0  0  0  0  0  0  0  0  0  0  0  0
  127.1767  134.4617  163.3612 H   0  0  0  0  0  0  0  0  0  0  0  0
  128.9004  134.6592  162.9633 H   0  0  0  0  0  0  0  0  0  0  0  0
  125.5174  136.1599  159.1667 H   0  0  0  0  0  0  0  0  0  0  0  0
  128.0967  136.4562  158.5549 H   0  0  0  0  0  0  0  0  0  0  0  0
  130.0479  138.0375  160.4454 H   0  0  0  0  0  0  0  0  0  0  0  0
  129.9359  137.5270  162.1469 H   0  0  0  0  0  0  0  0  0  0  0  0
  132.3283  137.2840  163.7112 H   0  0  0  0  0  0  0  0  0  0  0  0
  131.8196  135.7140  163.0440 H   0  0  0  0  0  0  0  0  0  0  0  0
  134.6750  137.9092  163.7647 H   0  0  0  0  0  0  0  0  0  0  0  0
  136.8965  138.1537  164.2274 H   0  0  0  0  0  0  0  0  0  0  0  0
  137.5616  134.8281  163.1055 H   0  0  0  0  0  0  0  0  0  0  0  0
  135.7855  133.3472  162.2632 H   0  0  0  0  0  0  0  0  0  0  0  0
  131.0991  136.2465  158.9889 H   0  0  0  0  0  0  0  0  0  0  0  0
  128.9456  131.4283  158.4981 H   0  0  0  0  0  0  0  0  0  0  0  0
  129.7369  133.4052  154.8126 H   0  0  0  0  0  0  0  0  0  0  0  0
  130.2472  132.0873  152.8005 H   0  0  0  0  0  0  0  0  0  0  0  0
  131.8474  128.8542  152.8320 H   0  0  0  0  0  0  0  0  0  0  0  0
  131.1775  130.0613  151.8746 H   0  0  0  0  0  0  0  0  0  0  0  0
  131.9520  129.0132  155.2384 H   0  0  0  0  0  0  0  0  0  0  0  0
  131.4550  130.3308  157.2541 H   0  0  0  0  0  0  0  0  0  0  0  0
  1  2  1  0
  1 35  1  0
  1 36  1  0
  1 37  1  0
  2  6  1  0
  2  3  1  0
  3  4  2  0
  4  5  1  0
  4 38  1  0
  5  6  2  0
  5 39  1  0
  6  7  1  0
  7  8  1  1
  7  9  1  0
  7 20  1  0
  9 10  1  0
  9 40  1  0
  9 41  1  0
 10 11  1  0
 11 12  1  0
 11 42  1  0
 11 43  1  0
 12 18  1  0
 12 13  2  0
 13 14  1  0
 13 44  1  0
 14 15  1  0
 14 16  2  0
 15 45  1  0
 16 17  1  0
 16 46  1  0
 17 18  2  0
 17 47  1  0
 18 19  1  0
 20 48  1  0
 21 20  1  0
 21 33  2  0
 21 22  1  0
 22 23  1  0
 22 24  1  0
 24 25  2  0
 24 49  1  0
 25 26  1  0
 25 33  1  0
 26 32  1  0
 26 27  2  0
 27 28  1  0
 27 50  1  0
 28 29  2  0
 28 51  1  0
 29 30  1  0
 29 31  1  0
 30 52  1  0
 30 53  1  0
 31 32  2  0
 31 54  1  0
 32 55  1  0
 33 34  1  0
M  CHG  1  33   1
M  END
>  <DOCK_score>  (1) 
-57.768917

>  <SMILES>  (1) 
Cn1nccc1[C@H](CSCc1cc(O)ccc1F)Nc1[nH]cc(-c2ccc(N)cc2)[nH+]1

$$$$
