Fc1ccccc1[C@H]1C[C@H](Nc2ccc(-c3n[nH]cc3C[NH2+]C[C@@H]3CC3(F)F)o2)C1
     RDKit          3D

 54 58  0  0  1  0  0  0  0  0999 V2000
  128.3711  140.7256  162.2618 F   0  0  0  0  0  0  0  0  0  0  0  0
  127.7137  141.0432  163.3985 C   0  0  0  0  0  0  0  0  0  0  0  0
  127.9813  142.2396  164.0425 C   0  0  0  0  0  0  0  0  0  0  0  0
  127.3080  142.5636  165.2049 C   0  0  0  0  0  0  0  0  0  0  0  0
  126.3675  141.6938  165.7250 C   0  0  0  0  0  0  0  0  0  0  0  0
  126.0953  140.5020  165.0800 C   0  0  0  0  0  0  0  0  0  0  0  0
  126.7717  140.1732  163.9202 C   0  0  0  0  0  0  0  0  0  0  0  0
  126.4793  138.8709  163.2206 C   0  0  1  0  0  0  0  0  0  0  0  0
  125.6811  138.9553  162.4832 H   0  0  0  0  0  0  0  0  0  0  0  0
  127.7360  138.1611  162.6897 C   0  0  0  0  0  0  0  0  0  0  0  0
  127.0934  136.8441  163.1560 C   0  0  2  0  0  0  0  0  0  0  0  0
  127.7997  136.1488  163.6099 H   0  0  0  0  0  0  0  0  0  0  0  0
  126.2463  136.2129  162.1410 N   0  0  0  0  0  0  0  0  0  0  0  0
  126.7956  135.3028  161.2454 C   0  0  0  0  0  0  0  0  0  0  0  0
  126.1428  134.2592  160.6757 C   0  0  0  0  0  0  0  0  0  0  0  0
  127.0681  133.6015  159.8412 C   0  0  0  0  0  0  0  0  0  0  0  0
  128.2432  134.2758  159.9483 C   0  0  0  0  0  0  0  0  0  0  0  0
  129.5012  133.9386  159.2505 C   0  0  0  0  0  0  0  0  0  0  0  0
  129.6826  132.9300  158.4209 N   0  0  0  0  0  0  0  0  0  0  0  0
  131.0109  132.9651  157.9778 N   0  0  0  0  0  0  0  0  0  0  0  0
  131.4203  132.3418  157.3575 H   0  0  0  0  0  0  0  0  0  0  0  0
  131.6246  134.0139  158.5676 C   0  0  0  0  0  0  0  0  0  0  0  0
  130.7233  134.6352  159.3582 C   0  0  0  0  0  0  0  0  0  0  0  0
  130.9776  135.8560  160.2043 C   0  0  0  0  0  0  0  0  0  0  0  0
  132.3745  136.2810  160.0435 N   0  0  0  0  0  0  0  0  0  0  0  0
  132.9886  135.5357  160.3354 H   0  0  0  0  0  0  0  0  0  0  0  0
  132.5496  136.5011  159.0744 H   0  0  0  0  0  0  0  0  0  0  0  0
  132.6223  137.4712  160.8682 C   0  0  0  0  0  0  0  0  0  0  0  0
  134.0772  137.9138  160.7006 C   0  0  2  0  0  0  0  0  0  0  0  0
  134.8285  137.1788  160.9890 H   0  0  0  0  0  0  0  0  0  0  0  0
  134.3998  139.3889  160.9482 C   0  0  0  0  0  0  0  0  0  0  0  0
  134.4045  138.8336  159.5224 C   0  0  0  0  0  0  0  0  0  0  0  0
  135.6454  138.6670  158.8983 F   0  0  0  0  0  0  0  0  0  0  0  0
  133.3504  139.2054  158.6810 F   0  0  0  0  0  0  0  0  0  0  0  0
  128.0632  135.3082  160.7988 O   0  0  0  0  0  0  0  0  0  0  0  0
  126.3085  137.6810  164.1797 C   0  0  0  0  0  0  0  0  0  0  0  0
  128.7163  142.9190  163.6367 H   0  0  0  0  0  0  0  0  0  0  0  0
  127.5169  143.4964  165.7075 H   0  0  0  0  0  0  0  0  0  0  0  0
  125.8417  141.9479  166.6335 H   0  0  0  0  0  0  0  0  0  0  0  0
  125.3573  139.8253  165.4847 H   0  0  0  0  0  0  0  0  0  0  0  0
  128.6454  138.4195  163.2323 H   0  0  0  0  0  0  0  0  0  0  0  0
  127.8529  138.2310  161.6081 H   0  0  0  0  0  0  0  0  0  0  0  0
  125.3021  136.4300  162.0940 H   0  0  0  0  0  0  0  0  0  0  0  0
  125.1101  133.9845  160.8322 H   0  0  0  0  0  0  0  0  0  0  0  0
  126.8808  132.7267  159.2363 H   0  0  0  0  0  0  0  0  0  0  0  0
  132.6557  134.3047  158.4309 H   0  0  0  0  0  0  0  0  0  0  0  0
  130.3141  136.6613  159.8889 H   0  0  0  0  0  0  0  0  0  0  0  0
  130.7884  135.6184  161.2512 H   0  0  0  0  0  0  0  0  0  0  0  0
  131.9589  138.2764  160.5529 H   0  0  0  0  0  0  0  0  0  0  0  0
  132.4331  137.2336  161.9151 H   0  0  0  0  0  0  0  0  0  0  0  0
  133.5756  140.0439  161.2305 H   0  0  0  0  0  0  0  0  0  0  0  0
  135.3636  139.6243  161.3998 H   0  0  0  0  0  0  0  0  0  0  0  0
  125.2729  137.3634  164.3014 H   0  0  0  0  0  0  0  0  0  0  0  0
  126.8270  137.8068  165.1303 H   0  0  0  0  0  0  0  0  0  0  0  0
  1  2  1  0
  2  7  2  0
  2  3  1  0
  3  4  2  0
  3 37  1  0
  4  5  1  0
  4 38  1  0
  5  6  2  0
  5 39  1  0
  6  7  1  0
  6 40  1  0
  7  8  1  0
  8  9  1  6
  8 36  1  0
  8 10  1  0
 10 11  1  0
 10 41  1  0
 10 42  1  0
 11 12  1  1
 11 13  1  0
 11 36  1  0
 13 14  1  0
 13 43  1  0
 14 35  1  0
 14 15  2  0
 15 16  1  0
 15 44  1  0
 16 17  2  0
 16 45  1  0
 17 18  1  0
 17 35  1  0
 18 23  1  0
 18 19  2  0
 19 20  1  0
 20 21  1  0
 20 22  1  0
 22 23  2  0
 22 46  1  0
 23 24  1  0
 24 25  1  0
 24 47  1  0
 24 48  1  0
 25 26  1  0
 25 27  1  0
 25 28  1  0
 28 29  1  0
 28 49  1  0
 28 50  1  0
 29 30  1  1
 29 32  1  0
 29 31  1  0
 31 32  1  0
 31 51  1  0
 31 52  1  0
 32 33  1  0
 32 34  1  0
 36 53  1  0
 36 54  1  0
M  CHG  1  25   1
M  END
>  <DOCK_score>  (1) 
-47.549313

>  <SMILES>  (1) 
Fc1ccccc1[C@H]1C[C@H](Nc2ccc(-c3n[nH]cc3C[NH2+]C[C@@H]3CC3(F)F)o2)C1

$$$$
