Cc1ccc(C)c(C[NH+]=C(NCCN2CCNC2=O)NC2CCCC[C@@H]2C)n1
     RDKit          3D

 63 65  0  0  1  0  0  0  0  0999 V2000
  135.5972  140.6918  162.9467 C   0  0  0  0  0  0  0  0  0  0  0  0
  135.4894  140.1438  161.5470 C   0  0  0  0  0  0  0  0  0  0  0  0
  136.4423  140.4836  160.6051 C   0  0  0  0  0  0  0  0  0  0  0  0
  136.3342  139.9737  159.3205 C   0  0  0  0  0  0  0  0  0  0  0  0
  135.2668  139.1375  159.0300 C   0  0  0  0  0  0  0  0  0  0  0  0
  135.1058  138.5577  157.6483 C   0  0  0  0  0  0  0  0  0  0  0  0
  134.3529  138.8422  160.0235 C   0  0  0  0  0  0  0  0  0  0  0  0
  133.1891  137.9346  159.7190 C   0  0  0  0  0  0  0  0  0  0  0  0
  132.3675  137.7739  160.9213 N   0  0  0  0  0  0  0  0  0  0  0  0
  132.6172  138.2247  161.7431 H   0  0  0  0  0  0  0  0  0  0  0  0
  131.3013  137.0251  160.8868 C   0  0  0  0  0  0  0  0  0  0  0  0
  130.5302  136.8742  162.0150 N   0  0  0  0  0  0  0  0  0  0  0  0
  131.1490  136.9505  163.3407 C   0  0  0  0  0  0  0  0  0  0  0  0
  130.5165  138.0960  164.1336 C   0  0  0  0  0  0  0  0  0  0  0  0
  129.0789  137.8541  164.2787 N   0  0  0  0  0  0  0  0  0  0  0  0
  128.4460  137.1189  165.3840 C   0  0  0  0  0  0  0  0  0  0  0  0
  126.9433  137.1657  165.0459 C   0  0  0  0  0  0  0  0  0  0  0  0
  126.8900  137.9142  163.7812 N   0  0  0  0  0  0  0  0  0  0  0  0
  128.1328  138.2622  163.4230 C   0  0  0  0  0  0  0  0  0  0  0  0
  128.3798  138.8919  162.4127 O   0  0  0  0  0  0  0  0  0  0  0  0
  130.9474  136.3860  159.7219 N   0  0  0  0  0  0  0  0  0  0  0  0
  129.7490  135.5444  159.6832 C   0  0  1  0  0  0  0  0  0  0  0  0
  128.5416  136.3944  159.2825 C   0  0  0  0  0  0  0  0  0  0  0  0
  127.2899  135.5154  159.2419 C   0  0  0  0  0  0  0  0  0  0  0  0
  127.4867  134.3948  158.2189 C   0  0  0  0  0  0  0  0  0  0  0  0
  128.6941  133.5447  158.6196 C   0  0  0  0  0  0  0  0  0  0  0  0
  129.9458  134.4238  158.6602 C   0  0  2  0  0  0  0  0  0  0  0  0
  130.1175  134.8572  157.6748 H   0  0  0  0  0  0  0  0  0  0  0  0
  131.1532  133.5737  159.0608 C   0  0  0  0  0  0  0  0  0  0  0  0
  134.4844  139.3499  161.2336 N   0  0  0  0  0  0  0  0  0  0  0  0
  135.0605  141.6385  163.0087 H   0  0  0  0  0  0  0  0  0  0  0  0
  135.1626  139.9811  163.6496 H   0  0  0  0  0  0  0  0  0  0  0  0
  136.6465  140.8523  163.1942 H   0  0  0  0  0  0  0  0  0  0  0  0
  137.2605  141.1382  160.8666 H   0  0  0  0  0  0  0  0  0  0  0  0
  137.0641  140.2217  158.5640 H   0  0  0  0  0  0  0  0  0  0  0  0
  134.5039  139.2320  157.0392 H   0  0  0  0  0  0  0  0  0  0  0  0
  136.0870  138.4324  157.1903 H   0  0  0  0  0  0  0  0  0  0  0  0
  134.6103  137.5893  157.7162 H   0  0  0  0  0  0  0  0  0  0  0  0
  133.5612  136.9610  159.4004 H   0  0  0  0  0  0  0  0  0  0  0  0
  132.5862  138.3715  158.9228 H   0  0  0  0  0  0  0  0  0  0  0  0
  129.5765  136.7172  161.9332 H   0  0  0  0  0  0  0  0  0  0  0  0
  130.9903  136.0110  163.8703 H   0  0  0  0  0  0  0  0  0  0  0  0
  132.2185  137.1305  163.2326 H   0  0  0  0  0  0  0  0  0  0  0  0
  130.9769  138.1527  165.1200 H   0  0  0  0  0  0  0  0  0  0  0  0
  130.6753  139.0355  163.6041 H   0  0  0  0  0  0  0  0  0  0  0  0
  128.8021  136.0891  165.4121 H   0  0  0  0  0  0  0  0  0  0  0  0
  128.6381  137.6171  166.3344 H   0  0  0  0  0  0  0  0  0  0  0  0
  126.3883  137.6895  165.8241 H   0  0  0  0  0  0  0  0  0  0  0  0
  126.5540  136.1568  164.9100 H   0  0  0  0  0  0  0  0  0  0  0  0
  126.0829  138.1228  163.2852 H   0  0  0  0  0  0  0  0  0  0  0  0
  131.4914  136.4924  158.9259 H   0  0  0  0  0  0  0  0  0  0  0  0
  129.5774  135.1109  160.6684 H   0  0  0  0  0  0  0  0  0  0  0  0
  128.4015  137.1927  160.0112 H   0  0  0  0  0  0  0  0  0  0  0  0
  128.7133  136.8279  158.2972 H   0  0  0  0  0  0  0  0  0  0  0  0
  126.4298  136.1209  158.9565 H   0  0  0  0  0  0  0  0  0  0  0  0
  127.1182  135.0819  160.2272 H   0  0  0  0  0  0  0  0  0  0  0  0
  127.6585  134.8282  157.2337 H   0  0  0  0  0  0  0  0  0  0  0  0
  126.5950  133.7685  158.1900 H   0  0  0  0  0  0  0  0  0  0  0  0
  128.5224  133.1113  159.6049 H   0  0  0  0  0  0  0  0  0  0  0  0
  128.8343  132.7464  157.8908 H   0  0  0  0  0  0  0  0  0  0  0  0
  131.2933  132.7754  158.3320 H   0  0  0  0  0  0  0  0  0  0  0  0
  132.0449  134.2000  159.0897 H   0  0  0  0  0  0  0  0  0  0  0  0
  130.9815  133.1403  160.0461 H   0  0  0  0  0  0  0  0  0  0  0  0
  1  2  1  0
  1 31  1  0
  1 32  1  0
  1 33  1  0
  2 30  2  0
  2  3  1  0
  3  4  2  0
  3 34  1  0
  4  5  1  0
  4 35  1  0
  5  6  1  0
  5  7  2  0
  6 36  1  0
  6 37  1  0
  6 38  1  0
  7  8  1  0
  7 30  1  0
  8  9  1  0
  8 39  1  0
  8 40  1  0
  9 10  1  0
 11  9  2  0
 11 12  1  0
 11 21  1  0
 12 13  1  0
 12 41  1  0
 13 14  1  0
 13 42  1  0
 13 43  1  0
 14 15  1  0
 14 44  1  0
 14 45  1  0
 15 19  1  0
 15 16  1  0
 16 17  1  0
 16 46  1  0
 16 47  1  0
 17 18  1  0
 17 48  1  0
 17 49  1  0
 18 19  1  0
 18 50  1  0
 19 20  2  0
 21 22  1  0
 21 51  1  0
 22 27  1  0
 22 23  1  0
 22 52  1  1
 23 24  1  0
 23 53  1  0
 23 54  1  0
 24 25  1  0
 24 55  1  0
 24 56  1  0
 25 26  1  0
 25 57  1  0
 25 58  1  0
 26 27  1  0
 26 59  1  0
 26 60  1  0
 27 28  1  6
 27 29  1  0
 29 61  1  0
 29 62  1  0
 29 63  1  0
M  CHG  1   9   1
M  END
>  <DOCK_score>  (1) 
-44.65797

>  <SMILES>  (1) 
Cc1ccc(C)c(C[NH+]=C(NCCN2CCNC2=O)NC2CCCC[C@@H]2C)n1

$$$$
