Oc1cc(F)cc(C=C2C=C([NH2+]C(Cc3ccccc3)Cc3ccccc3)CCC2)c1
     RDKit          3D

 60 63  0  0  0  0  0  0  0  0999 V2000
  136.7392  139.3756  160.1934 O   0  0  0  0  0  0  0  0  0  0  0  0
  135.4322  139.1407  160.4823 C   0  0  0  0  0  0  0  0  0  0  0  0
  134.4476  139.9729  159.9664 C   0  0  0  0  0  0  0  0  0  0  0  0
  133.1138  139.7392  160.2569 C   0  0  0  0  0  0  0  0  0  0  0  0
  132.1617  140.5534  159.7512 F   0  0  0  0  0  0  0  0  0  0  0  0
  132.7544  138.6753  161.0620 C   0  0  0  0  0  0  0  0  0  0  0  0
  133.7393  137.8330  161.5850 C   0  0  0  0  0  0  0  0  0  0  0  0
  133.3613  136.6972  162.4435 C   0  0  0  0  0  0  0  0  0  0  0  0
  132.5538  135.7324  161.9660 C   0  0  0  0  0  0  0  0  0  0  0  0
  132.1940  135.6781  160.5417 C   0  0  0  0  0  0  0  0  0  0  0  0
  131.5943  134.6076  160.0389 C   0  0  0  0  0  0  0  0  0  0  0  0
  131.2866  134.5978  158.6752 N   0  0  0  0  0  0  0  0  0  0  0  0
  131.5885  135.4646  158.2562 H   0  0  0  0  0  0  0  0  0  0  0  0
  131.7594  133.8260  158.2292 H   0  0  0  0  0  0  0  0  0  0  0  0
  129.8355  134.4493  158.5018 C   0  0  0  0  0  0  0  0  0  0  0  0
  129.1554  135.8035  158.7133 C   0  0  0  0  0  0  0  0  0  0  0  0
  127.6964  135.5897  159.0243 C   0  0  0  0  0  0  0  0  0  0  0  0
  126.7697  135.5509  157.9993 C   0  0  0  0  0  0  0  0  0  0  0  0
  125.4320  135.3501  158.2841 C   0  0  0  0  0  0  0  0  0  0  0  0
  125.0198  135.1979  159.5948 C   0  0  0  0  0  0  0  0  0  0  0  0
  125.9456  135.2425  160.6203 C   0  0  0  0  0  0  0  0  0  0  0  0
  127.2841  135.4381  160.3350 C   0  0  0  0  0  0  0  0  0  0  0  0
  129.5397  133.9455  157.0878 C   0  0  0  0  0  0  0  0  0  0  0  0
  130.2095  132.6117  156.8794 C   0  0  0  0  0  0  0  0  0  0  0  0
  130.6266  132.2377  155.6156 C   0  0  0  0  0  0  0  0  0  0  0  0
  131.2455  131.0163  155.4253 C   0  0  0  0  0  0  0  0  0  0  0  0
  131.4382  130.1647  156.4969 C   0  0  0  0  0  0  0  0  0  0  0  0
  131.0160  130.5363  157.7597 C   0  0  0  0  0  0  0  0  0  0  0  0
  130.4018  131.7599  157.9510 C   0  0  0  0  0  0  0  0  0  0  0  0
  131.2243  133.4097  160.8620 C   0  0  0  0  0  0  0  0  0  0  0  0
  132.0701  133.3298  162.1320 C   0  0  0  0  0  0  0  0  0  0  0  0
  131.9796  134.6682  162.8788 C   0  0  0  0  0  0  0  0  0  0  0  0
  135.0835  138.0689  161.2856 C   0  0  0  0  0  0  0  0  0  0  0  0
  136.8844  140.1452  159.6263 H   0  0  0  0  0  0  0  0  0  0  0  0
  134.7231  140.8059  159.3366 H   0  0  0  0  0  0  0  0  0  0  0  0
  131.7135  138.4950  161.2870 H   0  0  0  0  0  0  0  0  0  0  0  0
  133.7321  136.6388  163.4562 H   0  0  0  0  0  0  0  0  0  0  0  0
  132.4243  136.5151  159.8992 H   0  0  0  0  0  0  0  0  0  0  0  0
  129.4540  133.7334  159.2299 H   0  0  0  0  0  0  0  0  0  0  0  0
  129.6317  136.3233  159.5446 H   0  0  0  0  0  0  0  0  0  0  0  0
  129.2498  136.4029  157.8080 H   0  0  0  0  0  0  0  0  0  0  0  0
  127.0913  135.6738  156.9756 H   0  0  0  0  0  0  0  0  0  0  0  0
  124.7085  135.3156  157.4830 H   0  0  0  0  0  0  0  0  0  0  0  0
  123.9741  135.0448  159.8176 H   0  0  0  0  0  0  0  0  0  0  0  0
  125.6235  135.1241  161.6442 H   0  0  0  0  0  0  0  0  0  0  0  0
  128.0074  135.4729  161.1361 H   0  0  0  0  0  0  0  0  0  0  0  0
  128.4629  133.8354  156.9591 H   0  0  0  0  0  0  0  0  0  0  0  0
  129.9212  134.6612  156.3598 H   0  0  0  0  0  0  0  0  0  0  0  0
  130.4723  132.9013  154.7777 H   0  0  0  0  0  0  0  0  0  0  0  0
  131.5749  130.7258  154.4386 H   0  0  0  0  0  0  0  0  0  0  0  0
  131.9182  129.2088  156.3476 H   0  0  0  0  0  0  0  0  0  0  0  0
  131.1662  129.8707  158.5969 H   0  0  0  0  0  0  0  0  0  0  0  0
  130.0720  132.0501  158.9375 H   0  0  0  0  0  0  0  0  0  0  0  0
  131.3814  132.5076  160.2707 H   0  0  0  0  0  0  0  0  0  0  0  0
  130.1717  133.4767  161.1373 H   0  0  0  0  0  0  0  0  0  0  0  0
  133.1082  133.1296  161.8667 H   0  0  0  0  0  0  0  0  0  0  0  0
  131.6961  132.5298  162.7709 H   0  0  0  0  0  0  0  0  0  0  0  0
  132.5589  134.6186  163.8008 H   0  0  0  0  0  0  0  0  0  0  0  0
  130.9383  134.8969  163.1057 H   0  0  0  0  0  0  0  0  0  0  0  0
  135.8489  137.4188  161.6832 H   0  0  0  0  0  0  0  0  0  0  0  0
  1  2  1  0
  1 34  1  0
  2 33  2  0
  2  3  1  0
  3  4  2  0
  3 35  1  0
  4  5  1  0
  4  6  1  0
  6  7  2  0
  6 36  1  0
  7  8  1  0
  7 33  1  0
  8  9  2  0
  8 37  1  0
  9 32  1  0
  9 10  1  0
 10 11  2  0
 10 38  1  0
 11 12  1  0
 11 30  1  0
 12 13  1  0
 12 14  1  0
 12 15  1  0
 15 16  1  0
 15 23  1  0
 15 39  1  0
 16 17  1  0
 16 40  1  0
 16 41  1  0
 17 22  1  0
 17 18  2  0
 18 19  1  0
 18 42  1  0
 19 20  2  0
 19 43  1  0
 20 21  1  0
 20 44  1  0
 21 22  2  0
 21 45  1  0
 22 46  1  0
 23 24  1  0
 23 47  1  0
 23 48  1  0
 24 29  1  0
 24 25  2  0
 25 26  1  0
 25 49  1  0
 26 27  2  0
 26 50  1  0
 27 28  1  0
 27 51  1  0
 28 29  2  0
 28 52  1  0
 29 53  1  0
 30 31  1  0
 30 54  1  0
 30 55  1  0
 31 32  1  0
 31 56  1  0
 31 57  1  0
 32 58  1  0
 32 59  1  0
 33 60  1  0
M  CHG  1  12   1
M  END
>  <DOCK_score>  (1) 
-57.515793

>  <SMILES>  (1) 
Oc1cc(F)cc(C=C2C=C([NH2+]C(Cc3ccccc3)Cc3ccccc3)CCC2)c1

$$$$
