Nc1ccc(-c2c[nH]c(N[C@@H](c3ccc(-c4cccs4)cc3)c3cccnc3)[nH+]2)cc1
     RDKit          3D

 53 57  0  0  1  0  0  0  0  0999 V2000
  131.2286  129.5313  150.9176 N   0  0  0  0  0  0  0  0  0  0  0  0
  131.0498  130.1217  152.1709 C   0  0  0  0  0  0  0  0  0  0  0  0
  130.7979  131.4852  152.2661 C   0  0  0  0  0  0  0  0  0  0  0  0
  130.6214  132.0703  153.5021 C   0  0  0  0  0  0  0  0  0  0  0  0
  130.6954  131.2930  154.6570 C   0  0  0  0  0  0  0  0  0  0  0  0
  130.5064  131.9203  155.9880 C   0  0  0  0  0  0  0  0  0  0  0  0
  129.9891  131.3185  157.0874 C   0  0  0  0  0  0  0  0  0  0  0  0
  129.9951  132.2546  158.0943 N   0  0  0  0  0  0  0  0  0  0  0  0
  129.6849  132.1222  159.0038 H   0  0  0  0  0  0  0  0  0  0  0  0
  130.5163  133.4011  157.5791 C   0  0  0  0  0  0  0  0  0  0  0  0
  130.6956  134.5872  158.2703 N   0  0  0  0  0  0  0  0  0  0  0  0
  130.3105  134.6784  159.6809 C   0  0  1  0  0  0  0  0  0  0  0  0
  130.5832  133.7553  160.1924 H   0  0  0  0  0  0  0  0  0  0  0  0
  131.0263  135.8387  160.3230 C   0  0  0  0  0  0  0  0  0  0  0  0
  130.8336  137.1202  159.8384 C   0  0  0  0  0  0  0  0  0  0  0  0
  131.4863  138.1868  160.4216 C   0  0  0  0  0  0  0  0  0  0  0  0
  132.3420  137.9707  161.5028 C   0  0  0  0  0  0  0  0  0  0  0  0
  133.0449  139.1088  162.1320 C   0  0  0  0  0  0  0  0  0  0  0  0
  133.4234  140.2366  161.4983 C   0  0  0  0  0  0  0  0  0  0  0  0
  134.0660  141.1594  162.2978 C   0  0  0  0  0  0  0  0  0  0  0  0
  134.2198  140.7933  163.5735 C   0  0  0  0  0  0  0  0  0  0  0  0
  133.5163  139.2011  163.8242 S   0  0  0  0  0  0  0  0  0  0  0  0
  132.5357  136.6748  161.9836 C   0  0  0  0  0  0  0  0  0  0  0  0
  131.8735  135.6176  161.3942 C   0  0  0  0  0  0  0  0  0  0  0  0
  128.8216  134.8881  159.7825 C   0  0  0  0  0  0  0  0  0  0  0  0
  128.1373  135.5603  158.7812 C   0  0  0  0  0  0  0  0  0  0  0  0
  126.7674  135.7257  158.9151 C   0  0  0  0  0  0  0  0  0  0  0  0
  126.1352  135.2274  160.0387 C   0  0  0  0  0  0  0  0  0  0  0  0
  126.8192  134.5975  160.9737 N   0  0  0  0  0  0  0  0  0  0  0  0
  128.1222  134.4179  160.8776 C   0  0  0  0  0  0  0  0  0  0  0  0
  130.8154  133.1990  156.3190 N   0  0  0  0  0  0  0  0  0  0  0  0
  131.1984  133.8583  155.7192 H   0  0  0  0  0  0  0  0  0  0  0  0
  130.9529  129.9265  154.5594 C   0  0  0  0  0  0  0  0  0  0  0  0
  131.1234  129.3447  153.3209 C   0  0  0  0  0  0  0  0  0  0  0  0
  131.1770  130.0728  150.1145 H   0  0  0  0  0  0  0  0  0  0  0  0
  131.4044  128.5797  150.8504 H   0  0  0  0  0  0  0  0  0  0  0  0
  130.7407  132.0871  151.3711 H   0  0  0  0  0  0  0  0  0  0  0  0
  130.4258  133.1299  153.5756 H   0  0  0  0  0  0  0  0  0  0  0  0
  129.6400  130.2990  157.1586 H   0  0  0  0  0  0  0  0  0  0  0  0
  131.0762  135.3578  157.8206 H   0  0  0  0  0  0  0  0  0  0  0  0
  130.1712  137.2860  159.0018 H   0  0  0  0  0  0  0  0  0  0  0  0
  131.3356  139.1866  160.0420 H   0  0  0  0  0  0  0  0  0  0  0  0
  133.2387  140.4043  160.4476 H   0  0  0  0  0  0  0  0  0  0  0  0
  134.4224  142.1060  161.9191 H   0  0  0  0  0  0  0  0  0  0  0  0
  134.7016  141.3869  164.3363 H   0  0  0  0  0  0  0  0  0  0  0  0
  133.1997  136.5005  162.8174 H   0  0  0  0  0  0  0  0  0  0  0  0
  132.0199  134.6148  161.7675 H   0  0  0  0  0  0  0  0  0  0  0  0
  128.6583  135.9423  157.9159 H   0  0  0  0  0  0  0  0  0  0  0  0
  126.2018  136.2411  158.1528 H   0  0  0  0  0  0  0  0  0  0  0  0
  125.0688  135.3551  160.1521 H   0  0  0  0  0  0  0  0  0  0  0  0
  128.6485  133.8971  161.6637 H   0  0  0  0  0  0  0  0  0  0  0  0
  131.0147  129.3231  155.4530 H   0  0  0  0  0  0  0  0  0  0  0  0
  131.3190  128.2853  153.2448 H   0  0  0  0  0  0  0  0  0  0  0  0
  1  2  1  0
  1 35  1  0
  1 36  1  0
  2 34  2  0
  2  3  1  0
  3  4  2  0
  3 37  1  0
  4  5  1  0
  4 38  1  0
  5  6  1  0
  5 33  2  0
  6 31  1  0
  6  7  2  0
  7  8  1  0
  7 39  1  0
  8  9  1  0
  8 10  1  0
 10 11  1  0
 10 31  2  0
 11 12  1  0
 11 40  1  0
 12 13  1  1
 12 14  1  0
 12 25  1  0
 14 24  1  0
 14 15  2  0
 15 16  1  0
 15 41  1  0
 16 17  2  0
 16 42  1  0
 17 18  1  0
 17 23  1  0
 18 22  1  0
 18 19  2  0
 19 20  1  0
 19 43  1  0
 20 21  2  0
 20 44  1  0
 21 22  1  0
 21 45  1  0
 23 24  2  0
 23 46  1  0
 24 47  1  0
 25 30  1  0
 25 26  2  0
 26 27  1  0
 26 48  1  0
 27 28  2  0
 27 49  1  0
 28 29  1  0
 28 50  1  0
 29 30  2  0
 30 51  1  0
 31 32  1  0
 33 34  1  0
 33 52  1  0
 34 53  1  0
M  CHG  1  31   1
M  END
>  <DOCK_score>  (1) 
-60.100357

>  <SMILES>  (1) 
Nc1ccc(-c2c[nH]c(N[C@@H](c3ccc(-c4cccs4)cc3)c3cccnc3)[nH+]2)cc1

$$$$
