C[C@@H](Cc1ccc(Br)cc1)Nc1[nH]cc(-c2ccc(C3=CCC=CC3)cc2)[nH+]1
     RDKit          3D

 53 56  0  0  1  0  0  0  0  0999 V2000
  132.6763  136.6744  161.8603 C   0  0  0  0  0  0  0  0  0  0  0  0
  131.5591  135.7538  161.3650 C   0  0  1  0  0  0  0  0  0  0  0  0
  131.6311  134.7906  161.8701 H   0  0  0  0  0  0  0  0  0  0  0  0
  130.2013  136.3895  161.6705 C   0  0  0  0  0  0  0  0  0  0  0  0
  129.1009  135.4827  161.1825 C   0  0  0  0  0  0  0  0  0  0  0  0
  128.6107  135.6206  159.8973 C   0  0  0  0  0  0  0  0  0  0  0  0
  127.6047  134.7861  159.4478 C   0  0  0  0  0  0  0  0  0  0  0  0
  127.0814  133.8196  160.2877 C   0  0  0  0  0  0  0  0  0  0  0  0
  125.6999  132.6826  159.6758 Br  0  0  0  0  0  0  0  0  0  0  0  0
  127.5686  133.6853  161.5753 C   0  0  0  0  0  0  0  0  0  0  0  0
  128.5781  134.5169  162.0221 C   0  0  0  0  0  0  0  0  0  0  0  0
  131.6924  135.5581  159.9193 N   0  0  0  0  0  0  0  0  0  0  0  0
  131.2680  134.3752  159.3388 C   0  0  0  0  0  0  0  0  0  0  0  0
  130.7129  133.3227  159.9995 N   0  0  0  0  0  0  0  0  0  0  0  0
  130.5452  133.2669  160.9532 H   0  0  0  0  0  0  0  0  0  0  0  0
  130.4342  132.3539  159.0667 C   0  0  0  0  0  0  0  0  0  0  0  0
  130.8215  132.8441  157.8623 C   0  0  0  0  0  0  0  0  0  0  0  0
  130.7076  132.1472  156.5591 C   0  0  0  0  0  0  0  0  0  0  0  0
  129.9449  132.7069  155.5334 C   0  0  0  0  0  0  0  0  0  0  0  0
  129.8425  132.0625  154.3210 C   0  0  0  0  0  0  0  0  0  0  0  0
  130.4935  130.8435  154.1214 C   0  0  0  0  0  0  0  0  0  0  0  0
  130.3799  130.1491  152.8228 C   0  0  0  0  0  0  0  0  0  0  0  0
  130.4528  128.8352  152.8006 C   0  0  0  0  0  0  0  0  0  0  0  0
  130.3441  128.0412  151.5336 C   0  0  0  0  0  0  0  0  0  0  0  0
  130.6292  128.8943  150.3347 C   0  0  0  0  0  0  0  0  0  0  0  0
  130.5626  130.1899  150.3561 C   0  0  0  0  0  0  0  0  0  0  0  0
  130.1928  130.9690  151.5820 C   0  0  0  0  0  0  0  0  0  0  0  0
  131.2526  130.2810  155.1506 C   0  0  0  0  0  0  0  0  0  0  0  0
  131.3584  130.9291  156.3605 C   0  0  0  0  0  0  0  0  0  0  0  0
  131.3346  134.0844  158.0626 N   0  0  0  0  0  0  0  0  0  0  0  0
  131.6899  134.6646  157.3712 H   0  0  0  0  0  0  0  0  0  0  0  0
  132.5769  136.8199  162.9360 H   0  0  0  0  0  0  0  0  0  0  0  0
  133.6434  136.2215  161.6428 H   0  0  0  0  0  0  0  0  0  0  0  0
  132.6040  137.6376  161.3551 H   0  0  0  0  0  0  0  0  0  0  0  0
  130.1021  136.5350  162.7461 H   0  0  0  0  0  0  0  0  0  0  0  0
  130.1292  137.3526  161.1653 H   0  0  0  0  0  0  0  0  0  0  0  0
  129.0166  136.3780  159.2431 H   0  0  0  0  0  0  0  0  0  0  0  0
  127.2245  134.8915  158.4426 H   0  0  0  0  0  0  0  0  0  0  0  0
  127.1600  132.9310  162.2314 H   0  0  0  0  0  0  0  0  0  0  0  0
  128.9584  134.4123  163.0276 H   0  0  0  0  0  0  0  0  0  0  0  0
  132.0782  136.2574  159.3687 H   0  0  0  0  0  0  0  0  0  0  0  0
  129.9875  131.3888  159.2552 H   0  0  0  0  0  0  0  0  0  0  0  0
  129.4377  133.6475  155.6895 H   0  0  0  0  0  0  0  0  0  0  0  0
  129.2557  132.4979  153.5258 H   0  0  0  0  0  0  0  0  0  0  0  0
  130.5926  128.3078  153.7326 H   0  0  0  0  0  0  0  0  0  0  0  0
  129.3372  127.6324  151.4498 H   0  0  0  0  0  0  0  0  0  0  0  0
  131.0609  127.2208  151.5669 H   0  0  0  0  0  0  0  0  0  0  0  0
  130.9032  128.4080  149.4100 H   0  0  0  0  0  0  0  0  0  0  0  0
  130.7832  130.7321  149.4485 H   0  0  0  0  0  0  0  0  0  0  0  0
  129.1490  131.2746  151.5099 H   0  0  0  0  0  0  0  0  0  0  0  0
  130.8215  131.8574  151.6427 H   0  0  0  0  0  0  0  0  0  0  0  0
  131.7561  129.3380  154.9971 H   0  0  0  0  0  0  0  0  0  0  0  0
  131.9454  130.4947  157.1561 H   0  0  0  0  0  0  0  0  0  0  0  0
  1  2  1  0
  1 32  1  0
  1 33  1  0
  1 34  1  0
  2  3  1  1
  2  4  1  0
  2 12  1  0
  4  5  1  0
  4 35  1  0
  4 36  1  0
  5 11  1  0
  5  6  2  0
  6  7  1  0
  6 37  1  0
  7  8  2  0
  7 38  1  0
  8  9  1  0
  8 10  1  0
 10 11  2  0
 10 39  1  0
 11 40  1  0
 12 41  1  0
 13 12  1  0
 13 30  2  0
 13 14  1  0
 14 15  1  0
 14 16  1  0
 16 17  2  0
 16 42  1  0
 17 18  1  0
 17 30  1  0
 18 29  1  0
 18 19  2  0
 19 20  1  0
 19 43  1  0
 20 21  2  0
 20 44  1  0
 21 22  1  0
 21 28  1  0
 22 27  1  0
 22 23  2  0
 23 24  1  0
 23 45  1  0
 24 25  1  0
 24 46  1  0
 24 47  1  0
 25 26  2  0
 25 48  1  0
 26 27  1  0
 26 49  1  0
 27 50  1  0
 27 51  1  0
 28 29  2  0
 28 52  1  0
 29 53  1  0
 30 31  1  0
M  CHG  1  30   1
M  END
>  <DOCK_score>  (1) 
-58.867146

>  <SMILES>  (1) 
C[C@@H](Cc1ccc(Br)cc1)Nc1[nH]cc(-c2ccc(C3=CCC=CC3)cc2)[nH+]1

$$$$
