Cc1n[nH]cc1CCNc1cccc([C@@H]([NH3+])C(=O)Nc2cccc(O)c2)c1
     RDKit          3D

 51 53  0  0  1  0  0  0  0  0999 V2000
  133.7226  139.2034  160.8110 C   0  0  0  0  0  0  0  0  0  0  0  0
  133.1115  139.2116  162.1886 C   0  0  0  0  0  0  0  0  0  0  0  0
  132.0547  139.8904  162.5550 N   0  0  0  0  0  0  0  0  0  0  0  0
  131.8106  139.6233  163.9083 N   0  0  0  0  0  0  0  0  0  0  0  0
  131.0872  139.9896  164.4408 H   0  0  0  0  0  0  0  0  0  0  0  0
  132.7609  138.7685  164.3410 C   0  0  0  0  0  0  0  0  0  0  0  0
  133.5765  138.4953  163.2963 C   0  0  0  0  0  0  0  0  0  0  0  0
  134.7738  137.5806  163.3218 C   0  0  0  0  0  0  0  0  0  0  0  0
  134.3368  136.1584  162.9647 C   0  0  0  0  0  0  0  0  0  0  0  0
  133.7453  136.1514  161.6244 N   0  0  0  0  0  0  0  0  0  0  0  0
  132.7509  135.2242  161.3048 C   0  0  0  0  0  0  0  0  0  0  0  0
  132.6088  134.0672  162.0606 C   0  0  0  0  0  0  0  0  0  0  0  0
  131.6212  133.1552  161.7452 C   0  0  0  0  0  0  0  0  0  0  0  0
  130.7810  133.3872  160.6714 C   0  0  0  0  0  0  0  0  0  0  0  0
  130.9230  134.5350  159.9137 C   0  0  0  0  0  0  0  0  0  0  0  0
  130.0051  134.7836  158.7446 C   0  0  1  0  0  0  0  0  0  0  0  0
  129.8736  135.8569  158.6077 H   0  0  0  0  0  0  0  0  0  0  0  0
  130.5919  134.2032  157.5292 N   0  0  0  0  0  0  0  0  0  0  0  0
  131.4876  134.6318  157.3505 H   0  0  0  0  0  0  0  0  0  0  0  0
  130.7136  133.2097  157.6560 H   0  0  0  0  0  0  0  0  0  0  0  0
  129.9771  134.3697  156.7466 H   0  0  0  0  0  0  0  0  0  0  0  0
  128.6672  134.1435  159.0116 C   0  0  0  0  0  0  0  0  0  0  0  0
  128.2440  133.2882  158.2631 O   0  0  0  0  0  0  0  0  0  0  0  0
  127.9408  134.5217  160.0820 N   0  0  0  0  0  0  0  0  0  0  0  0
  126.6985  133.9275  160.3298 C   0  0  0  0  0  0  0  0  0  0  0  0
  126.4620  132.6178  159.9312 C   0  0  0  0  0  0  0  0  0  0  0  0
  125.2377  132.0293  160.1811 C   0  0  0  0  0  0  0  0  0  0  0  0
  124.2412  132.7449  160.8177 C   0  0  0  0  0  0  0  0  0  0  0  0
  124.4698  134.0553  161.2129 C   0  0  0  0  0  0  0  0  0  0  0  0
  123.4889  134.7578  161.8383 O   0  0  0  0  0  0  0  0  0  0  0  0
  125.6993  134.6475  160.9690 C   0  0  0  0  0  0  0  0  0  0  0  0
  131.9053  135.4542  160.2272 C   0  0  0  0  0  0  0  0  0  0  0  0
  133.2708  138.4085  160.2178 H   0  0  0  0  0  0  0  0  0  0  0  0
  133.5431  140.1640  160.3282 H   0  0  0  0  0  0  0  0  0  0  0  0
  134.7961  139.0318  160.8908 H   0  0  0  0  0  0  0  0  0  0  0  0
  132.8517  138.3703  165.3408 H   0  0  0  0  0  0  0  0  0  0  0  0
  135.5110  137.9269  162.5975 H   0  0  0  0  0  0  0  0  0  0  0  0
  135.2138  137.5858  164.3190 H   0  0  0  0  0  0  0  0  0  0  0  0
  135.2028  135.4967  162.9833 H   0  0  0  0  0  0  0  0  0  0  0  0
  133.5995  135.8121  163.6890 H   0  0  0  0  0  0  0  0  0  0  0  0
  134.0444  136.7906  160.9589 H   0  0  0  0  0  0  0  0  0  0  0  0
  133.2676  133.8831  162.8965 H   0  0  0  0  0  0  0  0  0  0  0  0
  131.5077  132.2575  162.3348 H   0  0  0  0  0  0  0  0  0  0  0  0
  130.0116  132.6705  160.4245 H   0  0  0  0  0  0  0  0  0  0  0  0
  128.2793  135.2058  160.6806 H   0  0  0  0  0  0  0  0  0  0  0  0
  127.2376  132.0580  159.4297 H   0  0  0  0  0  0  0  0  0  0  0  0
  125.0571  131.0098  159.8742 H   0  0  0  0  0  0  0  0  0  0  0  0
  123.2834  132.2835  161.0080 H   0  0  0  0  0  0  0  0  0  0  0  0
  123.7415  135.6608  162.0750 H   0  0  0  0  0  0  0  0  0  0  0  0
  125.8791  135.6671  161.2762 H   0  0  0  0  0  0  0  0  0  0  0  0
  132.0158  136.3505  159.6349 H   0  0  0  0  0  0  0  0  0  0  0  0
  1  2  1  0
  1 33  1  0
  1 34  1  0
  1 35  1  0
  2  7  1  0
  2  3  2  0
  3  4  1  0
  4  5  1  0
  4  6  1  0
  6  7  2  0
  6 36  1  0
  7  8  1  0
  8  9  1  0
  8 37  1  0
  8 38  1  0
  9 10  1  0
  9 39  1  0
  9 40  1  0
 10 11  1  0
 10 41  1  0
 11 32  1  0
 11 12  2  0
 12 13  1  0
 12 42  1  0
 13 14  2  0
 13 43  1  0
 14 15  1  0
 14 44  1  0
 15 16  1  0
 15 32  2  0
 16 17  1  6
 16 18  1  0
 16 22  1  0
 18 19  1  0
 18 20  1  0
 18 21  1  0
 22 23  2  0
 22 24  1  0
 24 25  1  0
 24 45  1  0
 25 31  1  0
 25 26  2  0
 26 27  1  0
 26 46  1  0
 27 28  2  0
 27 47  1  0
 28 29  1  0
 28 48  1  0
 29 30  1  0
 29 31  2  0
 30 49  1  0
 31 50  1  0
 32 51  1  0
M  CHG  1  18   1
M  END
>  <DOCK_score>  (1) 
-43.86615

>  <SMILES>  (1) 
Cc1n[nH]cc1CCNc1cccc([C@@H]([NH3+])C(=O)Nc2cccc(O)c2)c1

$$$$
