Nc1ccc(-c2c[nH]c(N[C@H](Cc3ccccn3)Cc3cccc4ccccc34)[nH+]2)cc1
     RDKit          3D

 58 62  0  0  1  0  0  0  0  0999 V2000
  131.5194  129.8403  152.6731 N   0  0  0  0  0  0  0  0  0  0  0  0
  131.1634  130.5551  153.8193 C   0  0  0  0  0  0  0  0  0  0  0  0
  130.4248  131.7269  153.7050 C   0  0  0  0  0  0  0  0  0  0  0  0
  130.0722  132.4339  154.8350 C   0  0  0  0  0  0  0  0  0  0  0  0
  130.4572  131.9728  156.0929 C   0  0  0  0  0  0  0  0  0  0  0  0
  130.0791  132.7317  157.3102 C   0  0  0  0  0  0  0  0  0  0  0  0
  129.3232  132.2688  158.3363 C   0  0  0  0  0  0  0  0  0  0  0  0
  129.2207  133.2917  159.2491 N   0  0  0  0  0  0  0  0  0  0  0  0
  128.7406  133.2643  160.0915 H   0  0  0  0  0  0  0  0  0  0  0  0
  129.9176  134.3498  158.7525 C   0  0  0  0  0  0  0  0  0  0  0  0
  130.0626  135.5807  159.3693 N   0  0  0  0  0  0  0  0  0  0  0  0
  129.4352  135.8268  160.6700 C   0  0  2  0  0  0  0  0  0  0  0  0
  129.5349  134.9394  161.2952 H   0  0  0  0  0  0  0  0  0  0  0  0
  127.9523  136.1451  160.4690 C   0  0  0  0  0  0  0  0  0  0  0  0
  127.3071  136.3983  161.8072 C   0  0  0  0  0  0  0  0  0  0  0  0
  127.2832  137.6807  162.3224 C   0  0  0  0  0  0  0  0  0  0  0  0
  126.6826  137.9037  163.5518 C   0  0  0  0  0  0  0  0  0  0  0  0
  126.1354  136.8219  164.2250 C   0  0  0  0  0  0  0  0  0  0  0  0
  126.2015  135.5672  163.6495 C   0  0  0  0  0  0  0  0  0  0  0  0
  126.7765  135.3930  162.4754 N   0  0  0  0  0  0  0  0  0  0  0  0
  130.1232  137.0110  161.3522 C   0  0  0  0  0  0  0  0  0  0  0  0
  131.5839  136.6975  161.5502 C   0  0  0  0  0  0  0  0  0  0  0  0
  132.4897  137.0203  160.5868 C   0  0  0  0  0  0  0  0  0  0  0  0
  133.8440  136.7380  160.7519 C   0  0  0  0  0  0  0  0  0  0  0  0
  134.3008  136.1308  161.8813 C   0  0  0  0  0  0  0  0  0  0  0  0
  133.3956  135.7826  162.8978 C   0  0  0  0  0  0  0  0  0  0  0  0
  133.8298  135.1551  164.0783 C   0  0  0  0  0  0  0  0  0  0  0  0
  132.9244  134.8327  165.0417 C   0  0  0  0  0  0  0  0  0  0  0  0
  131.5695  135.1153  164.8765 C   0  0  0  0  0  0  0  0  0  0  0  0
  131.1125  135.7217  163.7473 C   0  0  0  0  0  0  0  0  0  0  0  0
  132.0176  136.0699  162.7300 C   0  0  0  0  0  0  0  0  0  0  0  0
  130.4242  134.0132  157.5915 N   0  0  0  0  0  0  0  0  0  0  0  0
  130.9621  134.5879  157.0247 H   0  0  0  0  0  0  0  0  0  0  0  0
  131.2029  130.8003  156.2049 C   0  0  0  0  0  0  0  0  0  0  0  0
  131.5481  130.0932  155.0725 C   0  0  0  0  0  0  0  0  0  0  0  0
  131.2513  130.1620  151.7982 H   0  0  0  0  0  0  0  0  0  0  0  0
  132.0350  129.0225  152.7521 H   0  0  0  0  0  0  0  0  0  0  0  0
  130.1270  132.0839  152.7301 H   0  0  0  0  0  0  0  0  0  0  0  0
  129.4979  133.3442  154.7456 H   0  0  0  0  0  0  0  0  0  0  0  0
  128.8854  131.2850  158.4204 H   0  0  0  0  0  0  0  0  0  0  0  0
  130.5796  136.2803  158.9401 H   0  0  0  0  0  0  0  0  0  0  0  0
  127.8526  137.0325  159.8439 H   0  0  0  0  0  0  0  0  0  0  0  0
  127.4622  135.3014  159.9832 H   0  0  0  0  0  0  0  0  0  0  0  0
  127.7237  138.4993  161.7726 H   0  0  0  0  0  0  0  0  0  0  0  0
  126.6454  138.8958  163.9771 H   0  0  0  0  0  0  0  0  0  0  0  0
  125.6639  136.9581  165.1870 H   0  0  0  0  0  0  0  0  0  0  0  0
  125.7778  134.7195  164.1674 H   0  0  0  0  0  0  0  0  0  0  0  0
  129.6563  137.1941  162.3201 H   0  0  0  0  0  0  0  0  0  0  0  0
  130.0236  137.8983  160.7271 H   0  0  0  0  0  0  0  0  0  0  0  0
  132.1535  137.5030  159.6810 H   0  0  0  0  0  0  0  0  0  0  0  0
  134.5420  137.0044  159.9718 H   0  0  0  0  0  0  0  0  0  0  0  0
  135.3534  135.9177  161.9953 H   0  0  0  0  0  0  0  0  0  0  0  0
  134.8765  134.9298  164.2198 H   0  0  0  0  0  0  0  0  0  0  0  0
  133.2607  134.3507  165.9477 H   0  0  0  0  0  0  0  0  0  0  0  0
  130.8718  134.8487  165.6567 H   0  0  0  0  0  0  0  0  0  0  0  0
  130.0604  135.9384  163.6353 H   0  0  0  0  0  0  0  0  0  0  0  0
  131.5061  130.4436  157.1781 H   0  0  0  0  0  0  0  0  0  0  0  0
  132.1221  129.1824  155.1591 H   0  0  0  0  0  0  0  0  0  0  0  0
  1  2  1  0
  1 36  1  0
  1 37  1  0
  2 35  2  0
  2  3  1  0
  3  4  2  0
  3 38  1  0
  4  5  1  0
  4 39  1  0
  5  6  1  0
  5 34  2  0
  6 32  1  0
  6  7  2  0
  7  8  1  0
  7 40  1  0
  8  9  1  0
  8 10  1  0
 10 11  1  0
 10 32  2  0
 11 12  1  0
 11 41  1  0
 12 13  1  1
 12 14  1  0
 12 21  1  0
 14 15  1  0
 14 42  1  0
 14 43  1  0
 15 20  1  0
 15 16  2  0
 16 17  1  0
 16 44  1  0
 17 18  2  0
 17 45  1  0
 18 19  1  0
 18 46  1  0
 19 20  2  0
 19 47  1  0
 21 22  1  0
 21 48  1  0
 21 49  1  0
 22 31  1  0
 22 23  2  0
 23 24  1  0
 23 50  1  0
 24 25  2  0
 24 51  1  0
 25 26  1  0
 25 52  1  0
 26 31  2  0
 26 27  1  0
 27 28  2  0
 27 53  1  0
 28 29  1  0
 28 54  1  0
 29 30  2  0
 29 55  1  0
 30 31  1  0
 30 56  1  0
 32 33  1  0
 34 35  1  0
 34 57  1  0
 35 58  1  0
M  CHG  1  32   1
M  END
>  <DOCK_score>  (1) 
-56.028721

>  <SMILES>  (1) 
Nc1ccc(-c2c[nH]c(N[C@H](Cc3ccccn3)Cc3cccc4ccccc34)[nH+]2)cc1

$$$$
