CCc1ccc(-c2c[nH]c(N[C@H](c3ccc(CF)cc3)C(C(N)=O)c3ccc(F)cc3)[nH+]2)cc1
     RDKit          3D

 61 64  0  0  1  0  0  0  0  0999 V2000
  131.6467  128.9280  152.8411 C   0  0  0  0  0  0  0  0  0  0  0  0
  130.6333  130.0688  152.7299 C   0  0  0  0  0  0  0  0  0  0  0  0
  130.5917  130.8325  154.0283 C   0  0  0  0  0  0  0  0  0  0  0  0
  130.8605  130.1818  155.2191 C   0  0  0  0  0  0  0  0  0  0  0  0
  130.8287  130.8772  156.4108 C   0  0  0  0  0  0  0  0  0  0  0  0
  130.5147  132.2351  156.4140 C   0  0  0  0  0  0  0  0  0  0  0  0
  130.4740  132.9868  157.6922 C   0  0  0  0  0  0  0  0  0  0  0  0
  130.1588  132.4765  158.9083 C   0  0  0  0  0  0  0  0  0  0  0  0
  130.2447  133.5103  159.8089 N   0  0  0  0  0  0  0  0  0  0  0  0
  130.0757  133.4570  160.7625 H   0  0  0  0  0  0  0  0  0  0  0  0
  130.6104  134.6230  159.1160 C   0  0  0  0  0  0  0  0  0  0  0  0
  130.8056  135.8822  159.6574 N   0  0  0  0  0  0  0  0  0  0  0  0
  130.6178  136.0989  161.0940 C   0  0  2  0  0  0  0  0  0  0  0  0
  131.3066  135.4633  161.6506 H   0  0  0  0  0  0  0  0  0  0  0  0
  129.2002  135.7556  161.4728 C   0  0  0  0  0  0  0  0  0  0  0  0
  128.1808  135.9172  160.5534 C   0  0  0  0  0  0  0  0  0  0  0  0
  126.8810  135.5983  160.8994 C   0  0  0  0  0  0  0  0  0  0  0  0
  126.5993  135.1268  162.1679 C   0  0  0  0  0  0  0  0  0  0  0  0
  125.1817  134.7833  162.5466 C   0  0  0  0  0  0  0  0  0  0  0  0
  125.1631  133.5578  163.2212 F   0  0  0  0  0  0  0  0  0  0  0  0
  127.6182  134.9696  163.0889 C   0  0  0  0  0  0  0  0  0  0  0  0
  128.9185  135.2845  162.7415 C   0  0  0  0  0  0  0  0  0  0  0  0
  130.8942  137.5660  161.4288 C   0  0  1  0  0  0  0  0  0  0  0  0
  130.7010  137.7890  162.9067 C   0  0  0  0  0  0  0  0  0  0  0  0
  130.2920  138.9910  163.3590 N   0  0  0  0  0  0  0  0  0  0  0  0
  130.9136  136.8869  163.6890 O   0  0  0  0  0  0  0  0  0  0  0  0
  132.3119  137.9093  161.0501 C   0  0  0  0  0  0  0  0  0  0  0  0
  133.3302  137.7528  161.9719 C   0  0  0  0  0  0  0  0  0  0  0  0
  134.6316  138.0619  161.6239 C   0  0  0  0  0  0  0  0  0  0  0  0
  134.9134  138.5397  160.3553 C   0  0  0  0  0  0  0  0  0  0  0  0
  136.1842  138.8483  160.0160 F   0  0  0  0  0  0  0  0  0  0  0  0
  133.8918  138.7012  159.4347 C   0  0  0  0  0  0  0  0  0  0  0  0
  132.5922  138.3857  159.7831 C   0  0  0  0  0  0  0  0  0  0  0  0
  130.7513  134.3051  157.8523 N   0  0  0  0  0  0  0  0  0  0  0  0
  131.0107  134.9155  157.1443 H   0  0  0  0  0  0  0  0  0  0  0  0
  130.2398  132.8843  155.2117 C   0  0  0  0  0  0  0  0  0  0  0  0
  130.2796  132.1801  154.0255 C   0  0  0  0  0  0  0  0  0  0  0  0
  131.3516  128.2572  153.6479 H   0  0  0  0  0  0  0  0  0  0  0  0
  131.6768  128.3757  151.9019 H   0  0  0  0  0  0  0  0  0  0  0  0
  132.6340  129.3386  153.0529 H   0  0  0  0  0  0  0  0  0  0  0  0
  130.9285  130.7397  151.9231 H   0  0  0  0  0  0  0  0  0  0  0  0
  129.6460  129.6583  152.5180 H   0  0  0  0  0  0  0  0  0  0  0  0
  131.0993  129.1285  155.2159 H   0  0  0  0  0  0  0  0  0  0  0  0
  131.0428  130.3691  157.3395 H   0  0  0  0  0  0  0  0  0  0  0  0
  129.8910  131.4533  159.1270 H   0  0  0  0  0  0  0  0  0  0  0  0
  131.0667  136.6209  159.0855 H   0  0  0  0  0  0  0  0  0  0  0  0
  128.4002  136.2895  159.5637 H   0  0  0  0  0  0  0  0  0  0  0  0
  126.0851  135.7207  160.1798 H   0  0  0  0  0  0  0  0  0  0  0  0
  124.7804  135.5614  163.1957 H   0  0  0  0  0  0  0  0  0  0  0  0
  124.5721  134.7115  161.6458 H   0  0  0  0  0  0  0  0  0  0  0  0
  127.3981  134.6011  164.0800 H   0  0  0  0  0  0  0  0  0  0  0  0
  129.7144  135.1621  163.4612 H   0  0  0  0  0  0  0  0  0  0  0  0
  130.2055  138.2017  160.8725 H   0  0  0  0  0  0  0  0  0  0  0  0
  130.1220  139.7124  162.7334 H   0  0  0  0  0  0  0  0  0  0  0  0
  130.1677  139.1345  164.3103 H   0  0  0  0  0  0  0  0  0  0  0  0
  133.1094  137.3850  162.9630 H   0  0  0  0  0  0  0  0  0  0  0  0
  135.4275  137.9357  162.3429 H   0  0  0  0  0  0  0  0  0  0  0  0
  134.1104  139.0742  158.4450 H   0  0  0  0  0  0  0  0  0  0  0  0
  131.7952  138.5117  159.0652 H   0  0  0  0  0  0  0  0  0  0  0  0
  129.9955  133.9363  155.2084 H   0  0  0  0  0  0  0  0  0  0  0  0
  130.0664  132.6819  153.0933 H   0  0  0  0  0  0  0  0  0  0  0  0
  1  2  1  0
  1 38  1  0
  1 39  1  0
  1 40  1  0
  2  3  1  0
  2 41  1  0
  2 42  1  0
  3 37  2  0
  3  4  1  0
  4  5  2  0
  4 43  1  0
  5  6  1  0
  5 44  1  0
  6  7  1  0
  6 36  2  0
  7 34  1  0
  7  8  2  0
  8  9  1  0
  8 45  1  0
  9 10  1  0
  9 11  1  0
 11 12  1  0
 11 34  2  0
 12 13  1  0
 12 46  1  0
 13 14  1  1
 13 15  1  0
 13 23  1  0
 15 22  1  0
 15 16  2  0
 16 17  1  0
 16 47  1  0
 17 18  2  0
 17 48  1  0
 18 19  1  0
 18 21  1  0
 19 20  1  0
 19 49  1  0
 19 50  1  0
 21 22  2  0
 21 51  1  0
 22 52  1  0
 23 24  1  0
 23 27  1  0
 23 53  1  6
 24 25  1  0
 24 26  2  0
 25 54  1  0
 25 55  1  0
 27 33  1  0
 27 28  2  0
 28 29  1  0
 28 56  1  0
 29 30  2  0
 29 57  1  0
 30 31  1  0
 30 32  1  0
 32 33  2  0
 32 58  1  0
 33 59  1  0
 34 35  1  0
 36 37  1  0
 36 60  1  0
 37 61  1  0
M  CHG  1  34   1
M  END
>  <DOCK_score>  (1) 
-57.009743

>  <SMILES>  (1) 
CCc1ccc(-c2c[nH]c(N[C@H](c3ccc(CF)cc3)C(C(N)=O)c3ccc(F)cc3)[nH+]2)cc1

$$$$
