[NH3+][C@@H](C(=O)Nc1cccc(O)c1)c1cccc(NCc2nccn2C2CC2)c1
     RDKit          3D

 52 55  0  0  1  0  0  0  0  0999 V2000
  131.6046  132.6697  158.4379 N   0  0  0  0  0  0  0  0  0  0  0  0
  131.7077  131.8717  159.0467 H   0  0  0  0  0  0  0  0  0  0  0  0
  131.1564  132.3829  157.5805 H   0  0  0  0  0  0  0  0  0  0  0  0
  132.5142  133.0537  158.2298 H   0  0  0  0  0  0  0  0  0  0  0  0
  130.7827  133.6897  159.1026 C   0  0  1  0  0  0  0  0  0  0  0  0
  130.6714  134.5518  158.4449 H   0  0  0  0  0  0  0  0  0  0  0  0
  129.4243  133.1161  159.4133 C   0  0  0  0  0  0  0  0  0  0  0  0
  129.3032  131.9300  159.6355 O   0  0  0  0  0  0  0  0  0  0  0  0
  128.3438  133.9213  159.4442 N   0  0  0  0  0  0  0  0  0  0  0  0
  127.0825  133.3887  159.7327 C   0  0  0  0  0  0  0  0  0  0  0  0
  126.7841  132.0779  159.3818 C   0  0  0  0  0  0  0  0  0  0  0  0
  125.5410  131.5504  159.6718 C   0  0  0  0  0  0  0  0  0  0  0  0
  124.5872  132.3278  160.3012 C   0  0  0  0  0  0  0  0  0  0  0  0
  124.8777  133.6394  160.6490 C   0  0  0  0  0  0  0  0  0  0  0  0
  123.9388  134.4027  161.2674 O   0  0  0  0  0  0  0  0  0  0  0  0
  126.1262  134.1707  160.3647 C   0  0  0  0  0  0  0  0  0  0  0  0
  131.4520  134.1179  160.3831 C   0  0  0  0  0  0  0  0  0  0  0  0
  131.1723  133.4546  161.5641 C   0  0  0  0  0  0  0  0  0  0  0  0
  131.7836  133.8449  162.7413 C   0  0  0  0  0  0  0  0  0  0  0  0
  132.6805  134.8952  162.7403 C   0  0  0  0  0  0  0  0  0  0  0  0
  132.9596  135.5670  161.5571 C   0  0  0  0  0  0  0  0  0  0  0  0
  133.8621  136.6330  161.5537 N   0  0  0  0  0  0  0  0  0  0  0  0
  134.1792  137.3284  162.8034 C   0  0  0  0  0  0  0  0  0  0  0  0
  134.5172  138.7667  162.5063 C   0  0  0  0  0  0  0  0  0  0  0  0
  134.5229  139.3179  161.3234 N   0  0  0  0  0  0  0  0  0  0  0  0
  134.8704  140.6083  161.4384 C   0  0  0  0  0  0  0  0  0  0  0  0
  135.0882  140.8665  162.7420 C   0  0  0  0  0  0  0  0  0  0  0  0
  134.8587  139.7000  163.4205 N   0  0  0  0  0  0  0  0  0  0  0  0
  134.9668  139.5005  164.8678 C   0  0  0  0  0  0  0  0  0  0  0  0
  135.8236  140.4935  165.6559 C   0  0  0  0  0  0  0  0  0  0  0  0
  136.3258  139.0673  165.4216 C   0  0  0  0  0  0  0  0  0  0  0  0
  132.3434  135.1725  160.3762 C   0  0  0  0  0  0  0  0  0  0  0  0
  128.4407  134.8699  159.2666 H   0  0  0  0  0  0  0  0  0  0  0  0
  127.5262  131.4699  158.8859 H   0  0  0  0  0  0  0  0  0  0  0  0
  125.3122  130.5300  159.4019 H   0  0  0  0  0  0  0  0  0  0  0  0
  123.6147  131.9139  160.5230 H   0  0  0  0  0  0  0  0  0  0  0  0
  124.2334  135.3013  161.4697 H   0  0  0  0  0  0  0  0  0  0  0  0
  126.3541  135.1911  160.6350 H   0  0  0  0  0  0  0  0  0  0  0  0
  130.4747  132.6301  161.5668 H   0  0  0  0  0  0  0  0  0  0  0  0
  131.5627  133.3250  163.6618 H   0  0  0  0  0  0  0  0  0  0  0  0
  133.1611  135.1967  163.6595 H   0  0  0  0  0  0  0  0  0  0  0  0
  134.2790  136.9127  160.7237 H   0  0  0  0  0  0  0  0  0  0  0  0
  133.3181  137.2878  163.4704 H   0  0  0  0  0  0  0  0  0  0  0  0
  135.0319  136.8461  163.2813 H   0  0  0  0  0  0  0  0  0  0  0  0
  134.9601  141.3161  160.6276 H   0  0  0  0  0  0  0  0  0  0  0  0
  135.3827  141.8132  163.1704 H   0  0  0  0  0  0  0  0  0  0  0  0
  134.0757  139.1061  165.3559 H   0  0  0  0  0  0  0  0  0  0  0  0
  136.3066  141.2953  165.0974 H   0  0  0  0  0  0  0  0  0  0  0  0
  135.4959  140.7528  166.6626 H   0  0  0  0  0  0  0  0  0  0  0  0
  136.3285  138.3883  166.2743 H   0  0  0  0  0  0  0  0  0  0  0  0
  137.1393  138.9309  164.7092 H   0  0  0  0  0  0  0  0  0  0  0  0
  132.5616  135.6899  159.4535 H   0  0  0  0  0  0  0  0  0  0  0  0
  1  2  1  0
  1  3  1  0
  1  4  1  0
  1  5  1  0
  5  6  1  6
  5  7  1  0
  5 17  1  0
  7  8  2  0
  7  9  1  0
  9 10  1  0
  9 33  1  0
 10 16  1  0
 10 11  2  0
 11 12  1  0
 11 34  1  0
 12 13  2  0
 12 35  1  0
 13 14  1  0
 13 36  1  0
 14 15  1  0
 14 16  2  0
 15 37  1  0
 16 38  1  0
 17 32  1  0
 17 18  2  0
 18 19  1  0
 18 39  1  0
 19 20  2  0
 19 40  1  0
 20 21  1  0
 20 41  1  0
 21 22  1  0
 21 32  2  0
 22 23  1  0
 22 42  1  0
 23 24  1  0
 23 43  1  0
 23 44  1  0
 24 28  1  0
 24 25  2  0
 25 26  1  0
 26 27  2  0
 26 45  1  0
 27 28  1  0
 27 46  1  0
 28 29  1  0
 29 31  1  0
 29 30  1  0
 29 47  1  0
 30 31  1  0
 30 48  1  0
 30 49  1  0
 31 50  1  0
 31 51  1  0
 32 52  1  0
M  CHG  1   1   1
M  END
>  <DOCK_score>  (1) 
-41.055252

>  <SMILES>  (1) 
[NH3+][C@@H](C(=O)Nc1cccc(O)c1)c1cccc(NCc2nccn2C2CC2)c1

$$$$
