C1=CCC(CNc2ccc(-c3n[nH]cc3C[NH2+]C[C@@H]3C[C@H]4CC[C@H]4C3)o2)C1
     RDKit          3D

 58 62  0  0  1  0  0  0  0  0999 V2000
  127.3621  136.2295  166.4786 C   0  0  0  0  0  0  0  0  0  0  0  0
  126.8305  135.1461  165.9815 C   0  0  0  0  0  0  0  0  0  0  0  0
  126.4635  135.3374  164.5283 C   0  0  0  0  0  0  0  0  0  0  0  0
  126.4755  136.8694  164.3184 C   0  0  0  0  0  0  0  0  0  0  0  0
  127.0300  137.2304  162.9388 C   0  0  0  0  0  0  0  0  0  0  0  0
  126.1937  136.6211  161.9016 N   0  0  0  0  0  0  0  0  0  0  0  0
  126.7491  135.7184  161.0024 C   0  0  0  0  0  0  0  0  0  0  0  0
  126.0620  134.8119  160.2633 C   0  0  0  0  0  0  0  0  0  0  0  0
  127.0078  134.1113  159.4890 C   0  0  0  0  0  0  0  0  0  0  0  0
  128.2281  134.6212  159.8018 C   0  0  0  0  0  0  0  0  0  0  0  0
  129.5200  134.1863  159.2317 C   0  0  0  0  0  0  0  0  0  0  0  0
  129.6916  133.2373  158.3325 N   0  0  0  0  0  0  0  0  0  0  0  0
  131.0623  133.1373  158.0624 N   0  0  0  0  0  0  0  0  0  0  0  0
  131.4756  132.5201  157.4384 H   0  0  0  0  0  0  0  0  0  0  0  0
  131.7092  134.0488  158.8206 C   0  0  0  0  0  0  0  0  0  0  0  0
  130.7891  134.7122  159.5529 C   0  0  0  0  0  0  0  0  0  0  0  0
  131.0680  135.8179  160.5382 C   0  0  0  0  0  0  0  0  0  0  0  0
  132.0237  136.7668  159.9517 N   0  0  0  0  0  0  0  0  0  0  0  0
  132.8836  136.2865  159.7328 H   0  0  0  0  0  0  0  0  0  0  0  0
  131.6334  137.1589  159.1079 H   0  0  0  0  0  0  0  0  0  0  0  0
  132.2957  137.8446  160.9120 C   0  0  0  0  0  0  0  0  0  0  0  0
  133.2911  138.8330  160.3011 C   0  0  2  0  0  0  0  0  0  0  0  0
  133.0587  138.9897  159.2477 H   0  0  0  0  0  0  0  0  0  0  0  0
  134.7199  138.2919  160.4457 C   0  0  0  0  0  0  0  0  0  0  0  0
  135.5162  139.3137  161.2736 C   0  0  1  0  0  0  0  0  0  0  0  0
  135.8330  138.9614  162.2552 H   0  0  0  0  0  0  0  0  0  0  0  0
  136.5863  140.0492  160.4463 C   0  0  0  0  0  0  0  0  0  0  0  0
  135.4173  140.9589  159.9386 C   0  0  0  0  0  0  0  0  0  0  0  0
  134.6892  140.6191  161.2463 C   0  0  1  0  0  0  0  0  0  0  0  0
  134.8571  141.3107  162.0720 H   0  0  0  0  0  0  0  0  0  0  0  0
  133.2322  140.1687  161.0571 C   0  0  0  0  0  0  0  0  0  0  0  0
  128.0569  135.5972  160.7182 O   0  0  0  0  0  0  0  0  0  0  0  0
  127.4380  137.3244  165.4399 C   0  0  0  0  0  0  0  0  0  0  0  0
  127.7025  136.3306  167.4986 H   0  0  0  0  0  0  0  0  0  0  0  0
  126.6736  134.2327  166.5360 H   0  0  0  0  0  0  0  0  0  0  0  0
  125.4698  134.9349  164.3314 H   0  0  0  0  0  0  0  0  0  0  0  0
  127.2005  134.8599  163.8826 H   0  0  0  0  0  0  0  0  0  0  0  0
  125.4808  137.2916  164.4605 H   0  0  0  0  0  0  0  0  0  0  0  0
  128.0503  136.8576  162.8483 H   0  0  0  0  0  0  0  0  0  0  0  0
  127.0270  138.3137  162.8181 H   0  0  0  0  0  0  0  0  0  0  0  0
  125.2524  136.8478  161.8426 H   0  0  0  0  0  0  0  0  0  0  0  0
  124.9928  134.6592  160.2650 H   0  0  0  0  0  0  0  0  0  0  0  0
  126.8027  133.3194  158.7839 H   0  0  0  0  0  0  0  0  0  0  0  0
  132.7757  134.2173  158.8382 H   0  0  0  0  0  0  0  0  0  0  0  0
  130.1393  136.3369  160.7746 H   0  0  0  0  0  0  0  0  0  0  0  0
  131.4898  135.3944  161.4498 H   0  0  0  0  0  0  0  0  0  0  0  0
  131.3669  138.3638  161.1483 H   0  0  0  0  0  0  0  0  0  0  0  0
  132.7173  137.4211  161.8235 H   0  0  0  0  0  0  0  0  0  0  0  0
  134.7019  137.3315  160.9608 H   0  0  0  0  0  0  0  0  0  0  0  0
  135.1735  138.1757  159.4614 H   0  0  0  0  0  0  0  0  0  0  0  0
  137.3178  140.5817  161.0538 H   0  0  0  0  0  0  0  0  0  0  0  0
  137.0451  139.4291  159.6763 H   0  0  0  0  0  0  0  0  0  0  0  0
  134.9210  140.5709  159.0491 H   0  0  0  0  0  0  0  0  0  0  0  0
  135.6850  142.0116  159.8487 H   0  0  0  0  0  0  0  0  0  0  0  0
  132.6849  140.9070  160.4711 H   0  0  0  0  0  0  0  0  0  0  0  0
  132.7539  140.0297  162.0266 H   0  0  0  0  0  0  0  0  0  0  0  0
  128.4541  137.4131  165.0555 H   0  0  0  0  0  0  0  0  0  0  0  0
  127.1068  138.2727  165.8629 H   0  0  0  0  0  0  0  0  0  0  0  0
  1 33  1  0
  1  2  2  0
  1 34  1  0
  2  3  1  0
  2 35  1  0
  3  4  1  0
  3 36  1  0
  3 37  1  0
  4  5  1  0
  4 33  1  0
  4 38  1  0
  5  6  1  0
  5 39  1  0
  5 40  1  0
  6  7  1  0
  6 41  1  0
  7 32  1  0
  7  8  2  0
  8  9  1  0
  8 42  1  0
  9 10  2  0
  9 43  1  0
 10 11  1  0
 10 32  1  0
 11 16  1  0
 11 12  2  0
 12 13  1  0
 13 14  1  0
 13 15  1  0
 15 16  2  0
 15 44  1  0
 16 17  1  0
 17 18  1  0
 17 45  1  0
 17 46  1  0
 18 19  1  0
 18 20  1  0
 18 21  1  0
 21 22  1  0
 21 47  1  0
 21 48  1  0
 22 23  1  6
 22 31  1  0
 22 24  1  0
 24 25  1  0
 24 49  1  0
 24 50  1  0
 25 26  1  1
 25 29  1  0
 25 27  1  0
 27 28  1  0
 27 51  1  0
 27 52  1  0
 28 29  1  0
 28 53  1  0
 28 54  1  0
 29 30  1  1
 29 31  1  0
 31 55  1  0
 31 56  1  0
 33 57  1  0
 33 58  1  0
M  CHG  1  18   1
M  END
>  <DOCK_score>  (1) 
-49.749699

>  <SMILES>  (1) 
C1=CCC(CNc2ccc(-c3n[nH]cc3C[NH2+]C[C@@H]3C[C@H]4CC[C@H]4C3)o2)C1

$$$$
