Nc1ccc(CCNc2cccc([C@@H]([NH3+])C(=O)Nc3cccc(O)c3)c2)cc1
     RDKit          3D

 53 55  0  0  1  0  0  0  0  0999 V2000
  137.6902  140.1051  159.9480 N   0  0  0  0  0  0  0  0  0  0  0  0
  136.5112  139.9714  160.6848 C   0  0  0  0  0  0  0  0  0  0  0  0
  136.5677  139.7523  162.0554 C   0  0  0  0  0  0  0  0  0  0  0  0
  135.4000  139.6252  162.7816 C   0  0  0  0  0  0  0  0  0  0  0  0
  134.1753  139.7054  162.1442 C   0  0  0  0  0  0  0  0  0  0  0  0
  132.9032  139.5602  162.9390 C   0  0  0  0  0  0  0  0  0  0  0  0
  132.4960  138.0860  162.9846 C   0  0  0  0  0  0  0  0  0  0  0  0
  132.2784  137.5970  161.6210 N   0  0  0  0  0  0  0  0  0  0  0  0
  131.8968  136.2705  161.4072 C   0  0  0  0  0  0  0  0  0  0  0  0
  132.1227  135.3141  162.3894 C   0  0  0  0  0  0  0  0  0  0  0  0
  131.7395  134.0047  162.1769 C   0  0  0  0  0  0  0  0  0  0  0  0
  131.1413  133.6426  160.9837 C   0  0  0  0  0  0  0  0  0  0  0  0
  130.9200  134.5906  160.0019 C   0  0  0  0  0  0  0  0  0  0  0  0
  130.2677  134.1914  158.7034 C   0  0  1  0  0  0  0  0  0  0  0  0
  130.1770  135.0655  158.0585 H   0  0  0  0  0  0  0  0  0  0  0  0
  131.0893  133.1732  158.0355 N   0  0  0  0  0  0  0  0  0  0  0  0
  130.6527  132.9058  157.1660 H   0  0  0  0  0  0  0  0  0  0  0  0
  132.0065  133.5503  157.8492 H   0  0  0  0  0  0  0  0  0  0  0  0
  131.1732  132.3641  158.6325 H   0  0  0  0  0  0  0  0  0  0  0  0
  128.8979  133.6282  158.9817 C   0  0  0  0  0  0  0  0  0  0  0  0
  128.4280  132.7853  158.2470 O   0  0  0  0  0  0  0  0  0  0  0  0
  128.1950  134.0612  160.0470 N   0  0  0  0  0  0  0  0  0  0  0  0
  126.9231  133.5383  160.3054 C   0  0  0  0  0  0  0  0  0  0  0  0
  126.6161  132.2372  159.9270 C   0  0  0  0  0  0  0  0  0  0  0  0
  125.3624  131.7191  160.1872 C   0  0  0  0  0  0  0  0  0  0  0  0
  124.4069  132.4966  160.8138 C   0  0  0  0  0  0  0  0  0  0  0  0
  124.7061  133.7987  161.1888 C   0  0  0  0  0  0  0  0  0  0  0  0
  123.7654  134.5623  161.8044 O   0  0  0  0  0  0  0  0  0  0  0  0
  125.9651  134.3204  160.9345 C   0  0  0  0  0  0  0  0  0  0  0  0
  131.2956  135.9034  160.2102 C   0  0  0  0  0  0  0  0  0  0  0  0
  134.1154  139.9183  160.7792 C   0  0  0  0  0  0  0  0  0  0  0  0
  135.2793  140.0515  160.0478 C   0  0  0  0  0  0  0  0  0  0  0  0
  137.6494  140.2541  158.9904 H   0  0  0  0  0  0  0  0  0  0  0  0
  138.5497  140.0530  160.3945 H   0  0  0  0  0  0  0  0  0  0  0  0
  137.5239  139.6850  162.5530 H   0  0  0  0  0  0  0  0  0  0  0  0
  135.4432  139.4589  163.8479 H   0  0  0  0  0  0  0  0  0  0  0  0
  133.0651  139.9240  163.9536 H   0  0  0  0  0  0  0  0  0  0  0  0
  132.1113  140.1414  162.4666 H   0  0  0  0  0  0  0  0  0  0  0  0
  133.2879  137.5049  163.4571 H   0  0  0  0  0  0  0  0  0  0  0  0
  131.5759  137.9809  163.5595 H   0  0  0  0  0  0  0  0  0  0  0  0
  132.3993  138.1945  160.8664 H   0  0  0  0  0  0  0  0  0  0  0  0
  132.5940  135.5954  163.3196 H   0  0  0  0  0  0  0  0  0  0  0  0
  131.9113  133.2616  162.9415 H   0  0  0  0  0  0  0  0  0  0  0  0
  130.8459  132.6169  160.8186 H   0  0  0  0  0  0  0  0  0  0  0  0
  128.5708  134.7353  160.6346 H   0  0  0  0  0  0  0  0  0  0  0  0
  127.3596  131.6290  159.4333 H   0  0  0  0  0  0  0  0  0  0  0  0
  125.1269  130.7061  159.8961 H   0  0  0  0  0  0  0  0  0  0  0  0
  123.4262  132.0901  161.0122 H   0  0  0  0  0  0  0  0  0  0  0  0
  124.0665  135.4538  162.0270 H   0  0  0  0  0  0  0  0  0  0  0  0
  126.1999  135.3335  161.2258 H   0  0  0  0  0  0  0  0  0  0  0  0
  131.1226  136.6435  159.4429 H   0  0  0  0  0  0  0  0  0  0  0  0
  133.1573  139.9809  160.2846 H   0  0  0  0  0  0  0  0  0  0  0  0
  135.2318  140.2174  158.9817 H   0  0  0  0  0  0  0  0  0  0  0  0
  1  2  1  0
  1 33  1  0
  1 34  1  0
  2 32  2  0
  2  3  1  0
  3  4  2  0
  3 35  1  0
  4  5  1  0
  4 36  1  0
  5  6  1  0
  5 31  2  0
  6  7  1  0
  6 37  1  0
  6 38  1  0
  7  8  1  0
  7 39  1  0
  7 40  1  0
  8  9  1  0
  8 41  1  0
  9 30  1  0
  9 10  2  0
 10 11  1  0
 10 42  1  0
 11 12  2  0
 11 43  1  0
 12 13  1  0
 12 44  1  0
 13 14  1  0
 13 30  2  0
 14 15  1  6
 14 16  1  0
 14 20  1  0
 16 17  1  0
 16 18  1  0
 16 19  1  0
 20 21  2  0
 20 22  1  0
 22 23  1  0
 22 45  1  0
 23 29  1  0
 23 24  2  0
 24 25  1  0
 24 46  1  0
 25 26  2  0
 25 47  1  0
 26 27  1  0
 26 48  1  0
 27 28  1  0
 27 29  2  0
 28 49  1  0
 29 50  1  0
 30 51  1  0
 31 32  1  0
 31 52  1  0
 32 53  1  0
M  CHG  1  16   1
M  END
>  <DOCK_score>  (1) 
-44.297382

>  <SMILES>  (1) 
Nc1ccc(CCNc2cccc([C@@H]([NH3+])C(=O)Nc3cccc(O)c3)c2)cc1

$$$$
