FC(F)[C@H](Cc1ccccc1)N1CC[NH+](Cc2ccc(C3=CCCC3)cc2)CC1
     RDKit          3D

 60 63  0  0  1  0  0  0  0  0999 V2000
  131.7448  130.2580  157.9878 F   0  0  0  0  0  0  0  0  0  0  0  0
  130.3655  130.3374  157.7678 C   0  0  0  0  0  0  0  0  0  0  0  0
  129.6908  130.2123  158.9871 F   0  0  0  0  0  0  0  0  0  0  0  0
  130.0271  131.6882  157.1340 C   0  0  2  0  0  0  0  0  0  0  0  0
  129.0553  131.6264  156.6441 H   0  0  0  0  0  0  0  0  0  0  0  0
  131.0967  132.0492  156.1013 C   0  0  0  0  0  0  0  0  0  0  0  0
  130.8277  131.3058  154.8184 C   0  0  0  0  0  0  0  0  0  0  0  0
  131.3866  130.0584  154.6122 C   0  0  0  0  0  0  0  0  0  0  0  0
  131.1358  129.3744  153.4374 C   0  0  0  0  0  0  0  0  0  0  0  0
  130.3345  129.9422  152.4645 C   0  0  0  0  0  0  0  0  0  0  0  0
  129.7798  131.1918  152.6686 C   0  0  0  0  0  0  0  0  0  0  0  0
  130.0264  131.8736  153.8455 C   0  0  0  0  0  0  0  0  0  0  0  0
  129.9847  132.7217  158.1771 N   0  0  0  0  0  0  0  0  0  0  0  0
  131.3410  133.1078  158.5913 C   0  0  0  0  0  0  0  0  0  0  0  0
  131.2526  134.1399  159.7177 C   0  0  0  0  0  0  0  0  0  0  0  0
  130.5124  135.3176  159.2458 N   0  0  0  0  0  0  0  0  0  0  0  0
  130.9859  135.7151  158.4484 H   0  0  0  0  0  0  0  0  0  0  0  0
  130.4435  136.3156  160.3216 C   0  0  0  0  0  0  0  0  0  0  0  0
  131.7428  137.0762  160.3851 C   0  0  0  0  0  0  0  0  0  0  0  0
  132.7705  136.6182  161.1901 C   0  0  0  0  0  0  0  0  0  0  0  0
  133.9625  137.3101  161.2528 C   0  0  0  0  0  0  0  0  0  0  0  0
  134.1303  138.4742  160.5020 C   0  0  0  0  0  0  0  0  0  0  0  0
  135.4048  139.2203  160.5641 C   0  0  0  0  0  0  0  0  0  0  0  0
  136.1891  139.4533  159.5263 C   0  0  0  0  0  0  0  0  0  0  0  0
  137.4093  140.2423  159.9411 C   0  0  0  0  0  0  0  0  0  0  0  0
  137.4680  140.0997  161.4793 C   0  0  0  0  0  0  0  0  0  0  0  0
  135.9871  139.8199  161.8230 C   0  0  0  0  0  0  0  0  0  0  0  0
  133.0878  138.9339  159.6964 C   0  0  0  0  0  0  0  0  0  0  0  0
  131.9027  138.2300  159.6386 C   0  0  0  0  0  0  0  0  0  0  0  0
  129.1522  134.9202  158.8593 C   0  0  0  0  0  0  0  0  0  0  0  0
  129.2230  133.8948  157.7255 C   0  0  0  0  0  0  0  0  0  0  0  0
  130.0575  129.5345  157.0982 H   0  0  0  0  0  0  0  0  0  0  0  0
  131.0712  133.1223  155.9117 H   0  0  0  0  0  0  0  0  0  0  0  0
  132.0791  131.7710  156.4833 H   0  0  0  0  0  0  0  0  0  0  0  0
  132.0163  129.6167  155.3703 H   0  0  0  0  0  0  0  0  0  0  0  0
  131.5694  128.3982  153.2777 H   0  0  0  0  0  0  0  0  0  0  0  0
  130.1422  129.4097  151.5447 H   0  0  0  0  0  0  0  0  0  0  0  0
  129.1541  131.6356  151.9084 H   0  0  0  0  0  0  0  0  0  0  0  0
  129.5933  132.8500  154.0050 H   0  0  0  0  0  0  0  0  0  0  0  0
  131.8712  133.5400  157.7428 H   0  0  0  0  0  0  0  0  0  0  0  0
  131.8774  132.2276  158.9458 H   0  0  0  0  0  0  0  0  0  0  0  0
  132.2575  134.4382  160.0168 H   0  0  0  0  0  0  0  0  0  0  0  0
  130.7343  133.7028  160.5711 H   0  0  0  0  0  0  0  0  0  0  0  0
  130.2699  135.8129  161.2731 H   0  0  0  0  0  0  0  0  0  0  0  0
  129.6261  137.0086  160.1226 H   0  0  0  0  0  0  0  0  0  0  0  0
  132.6391  135.7173  161.7711 H   0  0  0  0  0  0  0  0  0  0  0  0
  134.7640  136.9517  161.8818 H   0  0  0  0  0  0  0  0  0  0  0  0
  135.9856  139.1243  158.5179 H   0  0  0  0  0  0  0  0  0  0  0  0
  137.2971  141.2897  159.6611 H   0  0  0  0  0  0  0  0  0  0  0  0
  138.3060  139.8212  159.4865 H   0  0  0  0  0  0  0  0  0  0  0  0
  138.1016  139.2617  161.7700 H   0  0  0  0  0  0  0  0  0  0  0  0
  137.8095  141.0245  161.9445 H   0  0  0  0  0  0  0  0  0  0  0  0
  135.9166  139.1115  162.6485 H   0  0  0  0  0  0  0  0  0  0  0  0
  135.4742  140.7479  162.0757 H   0  0  0  0  0  0  0  0  0  0  0  0
  133.2100  139.8368  159.1163 H   0  0  0  0  0  0  0  0  0  0  0  0
  131.0965  138.5826  159.0124 H   0  0  0  0  0  0  0  0  0  0  0  0
  128.6449  134.4791  159.7172 H   0  0  0  0  0  0  0  0  0  0  0  0
  128.5996  135.7970  158.5218 H   0  0  0  0  0  0  0  0  0  0  0  0
  129.7184  134.3400  156.8626 H   0  0  0  0  0  0  0  0  0  0  0  0
  128.2143  133.5889  157.4483 H   0  0  0  0  0  0  0  0  0  0  0  0
  1  2  1  0
  2  3  1  0
  2  4  1  0
  2 32  1  0
  4  5  1  6
  4  6  1  0
  4 13  1  0
  6  7  1  0
  6 33  1  0
  6 34  1  0
  7 12  1  0
  7  8  2  0
  8  9  1  0
  8 35  1  0
  9 10  2  0
  9 36  1  0
 10 11  1  0
 10 37  1  0
 11 12  2  0
 11 38  1  0
 12 39  1  0
 13 31  1  0
 13 14  1  0
 14 15  1  0
 14 40  1  0
 14 41  1  0
 15 16  1  0
 15 42  1  0
 15 43  1  0
 16 17  1  0
 16 18  1  0
 16 30  1  0
 18 19  1  0
 18 44  1  0
 18 45  1  0
 19 29  1  0
 19 20  2  0
 20 21  1  0
 20 46  1  0
 21 22  2  0
 21 47  1  0
 22 23  1  0
 22 28  1  0
 23 27  1  0
 23 24  2  0
 24 25  1  0
 24 48  1  0
 25 26  1  0
 25 49  1  0
 25 50  1  0
 26 27  1  0
 26 51  1  0
 26 52  1  0
 27 53  1  0
 27 54  1  0
 28 29  2  0
 28 55  1  0
 29 56  1  0
 30 31  1  0
 30 57  1  0
 30 58  1  0
 31 59  1  0
 31 60  1  0
M  CHG  1  16   1
M  END
>  <DOCK_score>  (1) 
-58.809998

>  <SMILES>  (1) 
FC(F)[C@H](Cc1ccccc1)N1CC[NH+](Cc2ccc(C3=CCCC3)cc2)CC1

$$$$
