Cc1ccc(C[N@H+]2CC=C(c3cccc(-c4ccc(-c5ccc(O)cc5)cc4)c3)CC2)[nH]1
     RDKit          3D

 61 65  0  0  1  0  0  0  0  0999 V2000
  130.9646  131.6268  155.8667 C   0  0  0  0  0  0  0  0  0  0  0  0
  130.4259  132.0874  157.1967 C   0  0  0  0  0  0  0  0  0  0  0  0
  129.9626  131.2903  158.1808 C   0  0  0  0  0  0  0  0  0  0  0  0
  129.5587  132.1230  159.2430 C   0  0  0  0  0  0  0  0  0  0  0  0
  129.7905  133.3973  158.8676 C   0  0  0  0  0  0  0  0  0  0  0  0
  129.5093  134.6265  159.6928 C   0  0  0  0  0  0  0  0  0  0  0  0
  130.6581  135.5392  159.6190 N   0  0  1  0  0  0  0  0  0  0  0  0
  131.0206  135.5502  158.6774 H   0  0  0  0  0  0  0  0  0  0  0  0
  130.2355  136.8923  159.9986 C   0  0  0  0  0  0  0  0  0  0  0  0
  131.4265  137.8003  160.1109 C   0  0  0  0  0  0  0  0  0  0  0  0
  132.6580  137.3543  160.2335 C   0  0  0  0  0  0  0  0  0  0  0  0
  133.7623  138.3313  160.3401 C   0  0  0  0  0  0  0  0  0  0  0  0
  134.3998  138.7952  159.1879 C   0  0  0  0  0  0  0  0  0  0  0  0
  135.4312  139.7076  159.2866 C   0  0  0  0  0  0  0  0  0  0  0  0
  135.8388  140.1665  160.5241 C   0  0  0  0  0  0  0  0  0  0  0  0
  135.2100  139.7107  161.6823 C   0  0  0  0  0  0  0  0  0  0  0  0
  135.6496  140.2050  163.0098 C   0  0  0  0  0  0  0  0  0  0  0  0
  135.5241  139.3894  164.1341 C   0  0  0  0  0  0  0  0  0  0  0  0
  135.9376  139.8462  165.3660 C   0  0  0  0  0  0  0  0  0  0  0  0
  136.4713  141.1286  165.4910 C   0  0  0  0  0  0  0  0  0  0  0  0
  136.9114  141.6227  166.8180 C   0  0  0  0  0  0  0  0  0  0  0  0
  137.9576  142.5396  166.9104 C   0  0  0  0  0  0  0  0  0  0  0  0
  138.3618  143.0000  168.1457 C   0  0  0  0  0  0  0  0  0  0  0  0
  137.7343  142.5445  169.2974 C   0  0  0  0  0  0  0  0  0  0  0  0
  138.1379  142.9964  170.5135 O   0  0  0  0  0  0  0  0  0  0  0  0
  136.6953  141.6278  169.2091 C   0  0  0  0  0  0  0  0  0  0  0  0
  136.2835  141.1668  167.9764 C   0  0  0  0  0  0  0  0  0  0  0  0
  136.5916  141.9463  164.3676 C   0  0  0  0  0  0  0  0  0  0  0  0
  136.1832  141.4872  163.1347 C   0  0  0  0  0  0  0  0  0  0  0  0
  134.1655  138.7957  161.5901 C   0  0  0  0  0  0  0  0  0  0  0  0
  132.9827  135.8862  160.2684 C   0  0  0  0  0  0  0  0  0  0  0  0
  131.7076  135.0856  160.5452 C   0  0  0  0  0  0  0  0  0  0  0  0
  130.3228  133.3818  157.6126 N   0  0  0  0  0  0  0  0  0  0  0  0
  130.5852  134.1625  157.1003 H   0  0  0  0  0  0  0  0  0  0  0  0
  132.0391  131.4622  155.9474 H   0  0  0  0  0  0  0  0  0  0  0  0
  130.4750  130.6965  155.5789 H   0  0  0  0  0  0  0  0  0  0  0  0
  130.7694  132.3889  155.1122 H   0  0  0  0  0  0  0  0  0  0  0  0
  129.9112  130.2117  158.1589 H   0  0  0  0  0  0  0  0  0  0  0  0
  129.1439  131.8000  160.1864 H   0  0  0  0  0  0  0  0  0  0  0  0
  128.6216  135.1278  159.3072 H   0  0  0  0  0  0  0  0  0  0  0  0
  129.3413  134.3371  160.7302 H   0  0  0  0  0  0  0  0  0  0  0  0
  129.5531  137.2820  159.2433 H   0  0  0  0  0  0  0  0  0  0  0  0
  129.7216  136.8533  160.9591 H   0  0  0  0  0  0  0  0  0  0  0  0
  131.2643  138.8678  160.0884 H   0  0  0  0  0  0  0  0  0  0  0  0
  134.0854  138.4401  158.2176 H   0  0  0  0  0  0  0  0  0  0  0  0
  135.9214  140.0638  158.3928 H   0  0  0  0  0  0  0  0  0  0  0  0
  136.6462  140.8803  160.5947 H   0  0  0  0  0  0  0  0  0  0  0  0
  135.1064  138.3982  164.0381 H   0  0  0  0  0  0  0  0  0  0  0  0
  135.8445  139.2130  166.2359 H   0  0  0  0  0  0  0  0  0  0  0  0
  138.4485  142.8914  166.0152 H   0  0  0  0  0  0  0  0  0  0  0  0
  139.1699  143.7128  168.2177 H   0  0  0  0  0  0  0  0  0  0  0  0
  137.6429  142.6235  171.2558 H   0  0  0  0  0  0  0  0  0  0  0  0
  136.2093  141.2750  170.1068 H   0  0  0  0  0  0  0  0  0  0  0  0
  135.4757  140.4532  167.9083 H   0  0  0  0  0  0  0  0  0  0  0  0
  137.0045  142.9396  164.4642 H   0  0  0  0  0  0  0  0  0  0  0  0
  136.2767  142.1203  162.2646 H   0  0  0  0  0  0  0  0  0  0  0  0
  133.6728  138.4433  162.4843 H   0  0  0  0  0  0  0  0  0  0  0  0
  133.7105  135.6941  161.0568 H   0  0  0  0  0  0  0  0  0  0  0  0
  133.4000  135.5838  159.3079 H   0  0  0  0  0  0  0  0  0  0  0  0
  131.3860  135.2535  161.5731 H   0  0  0  0  0  0  0  0  0  0  0  0
  131.8984  134.0236  160.3905 H   0  0  0  0  0  0  0  0  0  0  0  0
  1  2  1  0
  1 35  1  0
  1 36  1  0
  1 37  1  0
  2 33  1  0
  2  3  2  0
  3  4  1  0
  3 38  1  0
  4  5  2  0
  4 39  1  0
  5  6  1  0
  5 33  1  0
  6  7  1  0
  6 40  1  0
  6 41  1  0
  7  8  1  6
  7 32  1  0
  7  9  1  0
  9 10  1  0
  9 42  1  0
  9 43  1  0
 10 11  2  0
 10 44  1  0
 11 12  1  0
 11 31  1  0
 12 30  1  0
 12 13  2  0
 13 14  1  0
 13 45  1  0
 14 15  2  0
 14 46  1  0
 15 16  1  0
 15 47  1  0
 16 17  1  0
 16 30  2  0
 17 29  1  0
 17 18  2  0
 18 19  1  0
 18 48  1  0
 19 20  2  0
 19 49  1  0
 20 21  1  0
 20 28  1  0
 21 27  1  0
 21 22  2  0
 22 23  1  0
 22 50  1  0
 23 24  2  0
 23 51  1  0
 24 25  1  0
 24 26  1  0
 25 52  1  0
 26 27  2  0
 26 53  1  0
 27 54  1  0
 28 29  2  0
 28 55  1  0
 29 56  1  0
 30 57  1  0
 31 32  1  0
 31 58  1  0
 31 59  1  0
 32 60  1  0
 32 61  1  0
 33 34  1  0
M  CHG  1   7   1
M  END
>  <DOCK_score>  (1) 
-58.667015

>  <SMILES>  (1) 
Cc1ccc(C[N@H+]2CC=C(c3cccc(-c4ccc(-c5ccc(O)cc5)cc4)c3)CC2)[nH]1

$$$$
