c1ccc(CCc2ncc(C[NH2+]C(Cc3ccccc3)Cc3ccccc3)[nH]2)cc1
     RDKit          3D

 60 63  0  0  0  0  0  0  0  0999 V2000
  130.6734  129.7753  152.2001 C   0  0  0  0  0  0  0  0  0  0  0  0
  131.2569  129.2176  153.3223 C   0  0  0  0  0  0  0  0  0  0  0  0
  131.3801  129.9627  154.4800 C   0  0  0  0  0  0  0  0  0  0  0  0
  130.9197  131.2657  154.5157 C   0  0  0  0  0  0  0  0  0  0  0  0
  131.0535  132.0778  155.7780 C   0  0  0  0  0  0  0  0  0  0  0  0
  129.8100  131.8790  156.6467 C   0  0  0  0  0  0  0  0  0  0  0  0
  129.9439  132.6912  157.9091 C   0  0  0  0  0  0  0  0  0  0  0  0
  129.0638  132.7531  158.8706 N   0  0  0  0  0  0  0  0  0  0  0  0
  129.5162  133.5712  159.8324 C   0  0  0  0  0  0  0  0  0  0  0  0
  130.7226  134.0336  159.4524 C   0  0  0  0  0  0  0  0  0  0  0  0
  131.6038  134.9833  160.2223 C   0  0  0  0  0  0  0  0  0  0  0  0
  131.2808  136.3659  159.8451 N   0  0  0  0  0  0  0  0  0  0  0  0
  131.4364  136.4897  158.8558 H   0  0  0  0  0  0  0  0  0  0  0  0
  130.3134  136.5557  160.0597 H   0  0  0  0  0  0  0  0  0  0  0  0
  132.1397  137.2916  160.5955 C   0  0  0  0  0  0  0  0  0  0  0  0
  133.5163  137.3618  159.9315 C   0  0  0  0  0  0  0  0  0  0  0  0
  134.5248  137.8879  160.9202 C   0  0  0  0  0  0  0  0  0  0  0  0
  134.7607  139.2470  161.0098 C   0  0  0  0  0  0  0  0  0  0  0  0
  135.6821  139.7301  161.9201 C   0  0  0  0  0  0  0  0  0  0  0  0
  136.3753  138.8530  162.7334 C   0  0  0  0  0  0  0  0  0  0  0  0
  136.1431  137.4935  162.6401 C   0  0  0  0  0  0  0  0  0  0  0  0
  135.2178  137.0109  161.7334 C   0  0  0  0  0  0  0  0  0  0  0  0
  131.5053  138.6838  160.6024 C   0  0  0  0  0  0  0  0  0  0  0  0
  130.4220  138.7370  161.6489 C   0  0  0  0  0  0  0  0  0  0  0  0
  129.1221  138.4053  161.3156 C   0  0  0  0  0  0  0  0  0  0  0  0
  128.1296  138.4495  162.2768 C   0  0  0  0  0  0  0  0  0  0  0  0
  128.4350  138.8353  163.5686 C   0  0  0  0  0  0  0  0  0  0  0  0
  129.7339  139.1720  163.9005 C   0  0  0  0  0  0  0  0  0  0  0  0
  130.7274  139.1228  162.9407 C   0  0  0  0  0  0  0  0  0  0  0  0
  130.9944  133.4757  158.2325 N   0  0  0  0  0  0  0  0  0  0  0  0
  131.7925  133.6174  157.6997 H   0  0  0  0  0  0  0  0  0  0  0  0
  130.3315  131.8217  153.3951 C   0  0  0  0  0  0  0  0  0  0  0  0
  130.2131  131.0782  152.2357 C   0  0  0  0  0  0  0  0  0  0  0  0
  130.5769  129.1931  151.2955 H   0  0  0  0  0  0  0  0  0  0  0  0
  131.6163  128.1995  153.2945 H   0  0  0  0  0  0  0  0  0  0  0  0
  131.8357  129.5267  155.3569 H   0  0  0  0  0  0  0  0  0  0  0  0
  131.1535  133.1327  155.5224 H   0  0  0  0  0  0  0  0  0  0  0  0
  131.9367  131.7520  156.3277 H   0  0  0  0  0  0  0  0  0  0  0  0
  129.7102  130.8240  156.9023 H   0  0  0  0  0  0  0  0  0  0  0  0
  128.9269  132.2048  156.0970 H   0  0  0  0  0  0  0  0  0  0  0  0
  129.0028  133.8165  160.7504 H   0  0  0  0  0  0  0  0  0  0  0  0
  131.4356  134.8497  161.2910 H   0  0  0  0  0  0  0  0  0  0  0  0
  132.6489  134.7781  159.9904 H   0  0  0  0  0  0  0  0  0  0  0  0
  132.2484  136.9367  161.6203 H   0  0  0  0  0  0  0  0  0  0  0  0
  133.8134  136.3652  159.6049 H   0  0  0  0  0  0  0  0  0  0  0  0
  133.4707  138.0279  159.0699 H   0  0  0  0  0  0  0  0  0  0  0  0
  134.2224  139.9317  160.3713 H   0  0  0  0  0  0  0  0  0  0  0  0
  135.8638  140.7921  161.9928 H   0  0  0  0  0  0  0  0  0  0  0  0
  137.0984  139.2300  163.4415 H   0  0  0  0  0  0  0  0  0  0  0  0
  136.6849  136.8083  163.2752 H   0  0  0  0  0  0  0  0  0  0  0  0
  135.0368  135.9487  161.6604 H   0  0  0  0  0  0  0  0  0  0  0  0
  132.2672  139.4293  160.8299 H   0  0  0  0  0  0  0  0  0  0  0  0
  131.0746  138.8917  159.6229 H   0  0  0  0  0  0  0  0  0  0  0  0
  128.8828  138.1082  160.3053 H   0  0  0  0  0  0  0  0  0  0  0  0
  127.1147  138.1867  162.0173 H   0  0  0  0  0  0  0  0  0  0  0  0
  127.6586  138.8741  164.3184 H   0  0  0  0  0  0  0  0  0  0  0  0
  129.9724  139.4738  164.9097 H   0  0  0  0  0  0  0  0  0  0  0  0
  131.7423  139.3862  163.2000 H   0  0  0  0  0  0  0  0  0  0  0  0
  129.9677  132.8382  153.4243 H   0  0  0  0  0  0  0  0  0  0  0  0
  129.7567  131.5140  151.3591 H   0  0  0  0  0  0  0  0  0  0  0  0
  1 33  2  0
  1  2  1  0
  1 34  1  0
  2  3  2  0
  2 35  1  0
  3  4  1  0
  3 36  1  0
  4  5  1  0
  4 32  2  0
  5  6  1  0
  5 37  1  0
  5 38  1  0
  6  7  1  0
  6 39  1  0
  6 40  1  0
  7 30  1  0
  7  8  2  0
  8  9  1  0
  9 10  2  0
  9 41  1  0
 10 11  1  0
 10 30  1  0
 11 12  1  0
 11 42  1  0
 11 43  1  0
 12 13  1  0
 12 14  1  0
 12 15  1  0
 15 16  1  0
 15 23  1  0
 15 44  1  0
 16 17  1  0
 16 45  1  0
 16 46  1  0
 17 22  1  0
 17 18  2  0
 18 19  1  0
 18 47  1  0
 19 20  2  0
 19 48  1  0
 20 21  1  0
 20 49  1  0
 21 22  2  0
 21 50  1  0
 22 51  1  0
 23 24  1  0
 23 52  1  0
 23 53  1  0
 24 29  1  0
 24 25  2  0
 25 26  1  0
 25 54  1  0
 26 27  2  0
 26 55  1  0
 27 28  1  0
 27 56  1  0
 28 29  2  0
 28 57  1  0
 29 58  1  0
 30 31  1  0
 32 33  1  0
 32 59  1  0
 33 60  1  0
M  CHG  1  12   1
M  END
>  <DOCK_score>  (1) 
-56.543846

>  <SMILES>  (1) 
c1ccc(CCc2ncc(C[NH2+]C(Cc3ccccc3)Cc3ccccc3)[nH]2)cc1

$$$$
