OCC[NH2+]Cc1c[nH]nc1-c1ccc(Nc2cccc3ccccc23)o1
     RDKit          3D

 47 50  0  0  0  0  0  0  0  0999 V2000
  132.3956  139.3434  158.5524 O   0  0  0  0  0  0  0  0  0  0  0  0
  131.4318  139.4639  159.6005 C   0  0  0  0  0  0  0  0  0  0  0  0
  131.5753  138.2836  160.5636 C   0  0  0  0  0  0  0  0  0  0  0  0
  131.3523  137.0276  159.8352 N   0  0  0  0  0  0  0  0  0  0  0  0
  132.0329  136.9425  159.0952 H   0  0  0  0  0  0  0  0  0  0  0  0
  130.4239  137.0281  159.4400 H   0  0  0  0  0  0  0  0  0  0  0  0
  131.4901  135.8943  160.7598 C   0  0  0  0  0  0  0  0  0  0  0  0
  131.2613  134.6057  160.0127 C   0  0  0  0  0  0  0  0  0  0  0  0
  132.2057  133.8703  159.3880 C   0  0  0  0  0  0  0  0  0  0  0  0
  131.6036  132.7899  158.8453 N   0  0  0  0  0  0  0  0  0  0  0  0
  132.0428  132.0875  158.3405 H   0  0  0  0  0  0  0  0  0  0  0  0
  130.2356  132.8587  159.1378 N   0  0  0  0  0  0  0  0  0  0  0  0
  130.0218  133.9545  159.8393 C   0  0  0  0  0  0  0  0  0  0  0  0
  128.7170  134.4153  160.3571 C   0  0  0  0  0  0  0  0  0  0  0  0
  127.5260  133.7811  160.1924 C   0  0  0  0  0  0  0  0  0  0  0  0
  126.5531  134.5639  160.8439 C   0  0  0  0  0  0  0  0  0  0  0  0
  127.1962  135.6348  161.3732 C   0  0  0  0  0  0  0  0  0  0  0  0
  126.6031  136.6598  162.1010 N   0  0  0  0  0  0  0  0  0  0  0  0
  127.3304  137.3268  163.0842 C   0  0  0  0  0  0  0  0  0  0  0  0
  128.0600  138.4535  162.7665 C   0  0  0  0  0  0  0  0  0  0  0  0
  128.7892  139.1268  163.7413 C   0  0  0  0  0  0  0  0  0  0  0  0
  128.8039  138.6944  165.0327 C   0  0  0  0  0  0  0  0  0  0  0  0
  128.0741  137.5507  165.3984 C   0  0  0  0  0  0  0  0  0  0  0  0
  128.0710  137.0817  166.7236 C   0  0  0  0  0  0  0  0  0  0  0  0
  127.3383  135.9811  167.0468 C   0  0  0  0  0  0  0  0  0  0  0  0
  126.6046  135.2984  166.0786 C   0  0  0  0  0  0  0  0  0  0  0  0
  126.5895  135.7207  164.7841 C   0  0  0  0  0  0  0  0  0  0  0  0
  127.3227  136.8593  164.4162 C   0  0  0  0  0  0  0  0  0  0  0  0
  128.5042  135.5349  161.0798 O   0  0  0  0  0  0  0  0  0  0  0  0
  132.3080  138.5354  158.0284 H   0  0  0  0  0  0  0  0  0  0  0  0
  130.4289  139.4647  159.1735 H   0  0  0  0  0  0  0  0  0  0  0  0
  131.5972  140.3959  160.1410 H   0  0  0  0  0  0  0  0  0  0  0  0
  130.8401  138.3756  161.3630 H   0  0  0  0  0  0  0  0  0  0  0  0
  132.5783  138.2829  160.9905 H   0  0  0  0  0  0  0  0  0  0  0  0
  130.7549  135.9863  161.5594 H   0  0  0  0  0  0  0  0  0  0  0  0
  132.4929  135.8936  161.1868 H   0  0  0  0  0  0  0  0  0  0  0  0
  133.2591  134.1029  159.3354 H   0  0  0  0  0  0  0  0  0  0  0  0
  127.3579  132.8548  159.6629 H   0  0  0  0  0  0  0  0  0  0  0  0
  125.4962  134.3519  160.9096 H   0  0  0  0  0  0  0  0  0  0  0  0
  125.6831  136.9107  161.9244 H   0  0  0  0  0  0  0  0  0  0  0  0
  128.0650  138.8171  161.7495 H   0  0  0  0  0  0  0  0  0  0  0  0
  129.3532  140.0068  163.4695 H   0  0  0  0  0  0  0  0  0  0  0  0
  129.3767  139.2302  165.7754 H   0  0  0  0  0  0  0  0  0  0  0  0
  128.6356  137.6004  167.4843 H   0  0  0  0  0  0  0  0  0  0  0  0
  127.3331  135.6261  168.0668 H   0  0  0  0  0  0  0  0  0  0  0  0
  126.0394  134.4219  166.3591 H   0  0  0  0  0  0  0  0  0  0  0  0
  126.0163  135.1819  164.0442 H   0  0  0  0  0  0  0  0  0  0  0  0
  1  2  1  0
  1 30  1  0
  2  3  1  0
  2 31  1  0
  2 32  1  0
  3  4  1  0
  3 33  1  0
  3 34  1  0
  4  5  1  0
  4  6  1  0
  4  7  1  0
  7  8  1  0
  7 35  1  0
  7 36  1  0
  8 13  1  0
  8  9  2  0
  9 10  1  0
  9 37  1  0
 10 11  1  0
 10 12  1  0
 12 13  2  0
 13 14  1  0
 14 29  1  0
 14 15  2  0
 15 16  1  0
 15 38  1  0
 16 17  2  0
 16 39  1  0
 17 18  1  0
 17 29  1  0
 18 19  1  0
 18 40  1  0
 19 28  1  0
 19 20  2  0
 20 21  1  0
 20 41  1  0
 21 22  2  0
 21 42  1  0
 22 23  1  0
 22 43  1  0
 23 28  2  0
 23 24  1  0
 24 25  2  0
 24 44  1  0
 25 26  1  0
 25 45  1  0
 26 27  2  0
 26 46  1  0
 27 28  1  0
 27 47  1  0
M  CHG  1   4   1
M  END
>  <DOCK_score>  (1) 
-44.810627

>  <SMILES>  (1) 
OCC[NH2+]Cc1c[nH]nc1-c1ccc(Nc2cccc3ccccc23)o1

$$$$
