Cn1nccc1[C@@H](Nc1[nH]cc(-c2ccc(N)cc2)[nH+]1)C1=Cc2ccccc2C1
     RDKit          3D

 52 56  0  0  1  0  0  0  0  0999 V2000
  126.7086  134.4941  161.5999 C   0  0  0  0  0  0  0  0  0  0  0  0
  126.7227  134.8531  160.1796 N   0  0  0  0  0  0  0  0  0  0  0  0
  125.6188  134.8482  159.3175 N   0  0  0  0  0  0  0  0  0  0  0  0
  126.0238  135.2265  158.1323 C   0  0  0  0  0  0  0  0  0  0  0  0
  127.3969  135.4840  158.2016 C   0  0  0  0  0  0  0  0  0  0  0  0
  127.8015  135.2469  159.4709 C   0  0  0  0  0  0  0  0  0  0  0  0
  129.2063  135.3901  159.9972 C   0  0  1  0  0  0  0  0  0  0  0  0
  129.3665  134.6759  160.8049 H   0  0  0  0  0  0  0  0  0  0  0  0
  130.1613  135.1285  158.9175 N   0  0  0  0  0  0  0  0  0  0  0  0
  130.1665  133.8992  158.2807 C   0  0  0  0  0  0  0  0  0  0  0  0
  129.8104  132.7131  158.8445 N   0  0  0  0  0  0  0  0  0  0  0  0
  129.5101  132.5777  159.7569 H   0  0  0  0  0  0  0  0  0  0  0  0
  129.9553  131.7420  157.8821 C   0  0  0  0  0  0  0  0  0  0  0  0
  130.3953  132.3632  156.7600 C   0  0  0  0  0  0  0  0  0  0  0  0
  130.6934  131.7111  155.4612 C   0  0  0  0  0  0  0  0  0  0  0  0
  130.5241  132.4167  154.2709 C   0  0  0  0  0  0  0  0  0  0  0  0
  130.8068  131.8103  153.0651 C   0  0  0  0  0  0  0  0  0  0  0  0
  131.2496  130.4939  153.0350 C   0  0  0  0  0  0  0  0  0  0  0  0
  131.5296  129.8790  151.8122 N   0  0  0  0  0  0  0  0  0  0  0  0
  131.4138  129.7861  154.2205 C   0  0  0  0  0  0  0  0  0  0  0  0
  131.1378  130.3902  155.4289 C   0  0  0  0  0  0  0  0  0  0  0  0
  130.5099  133.6869  157.0336 N   0  0  0  0  0  0  0  0  0  0  0  0
  130.8018  134.3674  156.4071 H   0  0  0  0  0  0  0  0  0  0  0  0
  129.4074  136.7902  160.5174 C   0  0  0  0  0  0  0  0  0  0  0  0
  129.8420  137.8220  159.8153 C   0  0  0  0  0  0  0  0  0  0  0  0
  129.9150  139.0368  160.6480 C   0  0  0  0  0  0  0  0  0  0  0  0
  130.3074  140.3459  160.3569 C   0  0  0  0  0  0  0  0  0  0  0  0
  130.2780  141.3079  161.3445 C   0  0  0  0  0  0  0  0  0  0  0  0
  129.8618  140.9847  162.6240 C   0  0  0  0  0  0  0  0  0  0  0  0
  129.4718  139.6897  162.9212 C   0  0  0  0  0  0  0  0  0  0  0  0
  129.4971  138.7233  161.9427 C   0  0  0  0  0  0  0  0  0  0  0  0
  129.1407  137.2567  161.9295 C   0  0  0  0  0  0  0  0  0  0  0  0
  126.5093  135.3837  162.1976 H   0  0  0  0  0  0  0  0  0  0  0  0
  125.9295  133.7534  161.7798 H   0  0  0  0  0  0  0  0  0  0  0  0
  127.6768  134.0783  161.8791 H   0  0  0  0  0  0  0  0  0  0  0  0
  125.4052  135.3228  157.2524 H   0  0  0  0  0  0  0  0  0  0  0  0
  128.0235  135.8143  157.3863 H   0  0  0  0  0  0  0  0  0  0  0  0
  130.7901  135.8165  158.6487 H   0  0  0  0  0  0  0  0  0  0  0  0
  129.7567  130.6867  157.9978 H   0  0  0  0  0  0  0  0  0  0  0  0
  130.1756  133.4386  154.2932 H   0  0  0  0  0  0  0  0  0  0  0  0
  130.6801  132.3579  152.1430 H   0  0  0  0  0  0  0  0  0  0  0  0
  131.8389  128.9598  151.7906 H   0  0  0  0  0  0  0  0  0  0  0  0
  131.4150  130.3718  150.9846 H   0  0  0  0  0  0  0  0  0  0  0  0
  131.7578  128.7627  154.1951 H   0  0  0  0  0  0  0  0  0  0  0  0
  131.2662  129.8405  156.3497 H   0  0  0  0  0  0  0  0  0  0  0  0
  130.1090  137.7808  158.7697 H   0  0  0  0  0  0  0  0  0  0  0  0
  130.6328  140.6039  159.3600 H   0  0  0  0  0  0  0  0  0  0  0  0
  130.5819  142.3193  161.1183 H   0  0  0  0  0  0  0  0  0  0  0  0
  129.8416  141.7435  163.3922 H   0  0  0  0  0  0  0  0  0  0  0  0
  129.1479  139.4388  163.9204 H   0  0  0  0  0  0  0  0  0  0  0  0
  128.0887  137.1199  162.1796 H   0  0  0  0  0  0  0  0  0  0  0  0
  129.7703  136.7111  162.6323 H   0  0  0  0  0  0  0  0  0  0  0  0
  1  2  1  0
  1 33  1  0
  1 34  1  0
  1 35  1  0
  2  6  1  0
  2  3  1  0
  3  4  2  0
  4  5  1  0
  4 36  1  0
  5  6  2  0
  5 37  1  0
  6  7  1  0
  7  8  1  1
  7  9  1  0
  7 24  1  0
  9 38  1  0
 10  9  1  0
 10 22  2  0
 10 11  1  0
 11 12  1  0
 11 13  1  0
 13 14  2  0
 13 39  1  0
 14 15  1  0
 14 22  1  0
 15 21  1  0
 15 16  2  0
 16 17  1  0
 16 40  1  0
 17 18  2  0
 17 41  1  0
 18 19  1  0
 18 20  1  0
 19 42  1  0
 19 43  1  0
 20 21  2  0
 20 44  1  0
 21 45  1  0
 22 23  1  0
 24 32  1  0
 24 25  2  0
 25 26  1  0
 25 46  1  0
 26 31  2  0
 26 27  1  0
 27 28  2  0
 27 47  1  0
 28 29  1  0
 28 48  1  0
 29 30  2  0
 29 49  1  0
 30 31  1  0
 30 50  1  0
 31 32  1  0
 32 51  1  0
 32 52  1  0
M  CHG  1  22   1
M  END
>  <DOCK_score>  (1) 
-62.969639

>  <SMILES>  (1) 
Cn1nccc1[C@@H](Nc1[nH]cc(-c2ccc(N)cc2)[nH+]1)C1=Cc2ccccc2C1

$$$$
