CC(CO)c1cc(N(C=CC[NH2+][C@@H]2c3ccccc3CC2C)[C@@H](C)CO)n[nH]1
     RDKit          3D

 61 63  0  0  1  0  0  0  0  0999 V2000
  125.1100  132.3435  160.0874 C   0  0  0  0  0  0  0  0  0  0  0  0
  125.3203  133.8473  160.2752 C   0  0  1  0  0  0  0  0  0  0  0  0
  125.1525  134.2052  161.7533 C   0  0  0  0  0  0  0  0  0  0  0  0
  125.3489  135.6098  161.9286 O   0  0  0  0  0  0  0  0  0  0  0  0
  126.7083  134.2209  159.8223 C   0  0  0  0  0  0  0  0  0  0  0  0
  127.6381  133.3743  159.3247 C   0  0  0  0  0  0  0  0  0  0  0  0
  128.7901  134.1229  159.0331 C   0  0  0  0  0  0  0  0  0  0  0  0
  129.9854  133.6207  158.5051 N   0  0  0  0  0  0  0  0  0  0  0  0
  131.1937  134.2310  158.8181 C   0  0  0  0  0  0  0  0  0  0  0  0
  131.3448  134.8387  159.9805 C   0  0  0  0  0  0  0  0  0  0  0  0
  132.6286  135.5643  160.2902 C   0  0  0  0  0  0  0  0  0  0  0  0
  132.5191  136.9622  159.8517 N   0  0  0  0  0  0  0  0  0  0  0  0
  132.3480  136.9904  158.8578 H   0  0  0  0  0  0  0  0  0  0  0  0
  131.7551  137.4080  160.3373 H   0  0  0  0  0  0  0  0  0  0  0  0
  133.7705  137.6696  160.1535 C   0  0  2  0  0  0  0  0  0  0  0  0
  134.6267  137.0278  159.9458 H   0  0  0  0  0  0  0  0  0  0  0  0
  133.7867  138.1147  161.6002 C   0  0  0  0  0  0  0  0  0  0  0  0
  134.0401  137.4012  162.7578 C   0  0  0  0  0  0  0  0  0  0  0  0
  133.9966  138.0298  163.9866 C   0  0  0  0  0  0  0  0  0  0  0  0
  133.6983  139.3776  164.0621 C   0  0  0  0  0  0  0  0  0  0  0  0
  133.4441  140.0928  162.9084 C   0  0  0  0  0  0  0  0  0  0  0  0
  133.4872  139.4644  161.6751 C   0  0  0  0  0  0  0  0  0  0  0  0
  133.2513  140.0147  160.2848 C   0  0  0  0  0  0  0  0  0  0  0  0
  133.8632  138.9701  159.3275 C   0  0  1  0  0  0  0  0  0  0  0  0
  135.3208  139.3107  159.0109 C   0  0  0  0  0  0  0  0  0  0  0  0
  129.9624  132.4517  157.6224 C   0  0  1  0  0  0  0  0  0  0  0  0
  128.9340  132.1140  157.4936 H   0  0  0  0  0  0  0  0  0  0  0  0
  130.5494  132.8291  156.2608 C   0  0  0  0  0  0  0  0  0  0  0  0
  130.7944  131.3277  158.2428 C   0  0  0  0  0  0  0  0  0  0  0  0
  130.2461  130.9752  159.5144 O   0  0  0  0  0  0  0  0  0  0  0  0
  128.5500  135.3756  159.3425 N   0  0  0  0  0  0  0  0  0  0  0  0
  127.2427  135.4601  159.8382 N   0  0  0  0  0  0  0  0  0  0  0  0
  126.8001  136.2676  160.1434 H   0  0  0  0  0  0  0  0  0  0  0  0
  124.1061  132.0733  160.4150 H   0  0  0  0  0  0  0  0  0  0  0  0
  125.2295  132.0886  159.0345 H   0  0  0  0  0  0  0  0  0  0  0  0
  125.8446  131.7973  160.6792 H   0  0  0  0  0  0  0  0  0  0  0  0
  124.5857  134.3935  159.6835 H   0  0  0  0  0  0  0  0  0  0  0  0
  124.1486  133.9350  162.0808 H   0  0  0  0  0  0  0  0  0  0  0  0
  125.8871  133.6589  162.3450 H   0  0  0  0  0  0  0  0  0  0  0  0
  124.7287  136.1588  161.4299 H   0  0  0  0  0  0  0  0  0  0  0  0
  127.5178  132.3107  159.1812 H   0  0  0  0  0  0  0  0  0  0  0  0
  132.0094  134.2084  158.1105 H   0  0  0  0  0  0  0  0  0  0  0  0
  130.5482  134.8154  160.7095 H   0  0  0  0  0  0  0  0  0  0  0  0
  132.8135  135.5339  161.3640 H   0  0  0  0  0  0  0  0  0  0  0  0
  133.4539  135.0827  159.7656 H   0  0  0  0  0  0  0  0  0  0  0  0
  134.2733  136.3484  162.6996 H   0  0  0  0  0  0  0  0  0  0  0  0
  134.1960  137.4689  164.8879 H   0  0  0  0  0  0  0  0  0  0  0  0
  133.6636  139.8705  165.0224 H   0  0  0  0  0  0  0  0  0  0  0  0
  133.2114  141.1458  162.9682 H   0  0  0  0  0  0  0  0  0  0  0  0
  133.7538  140.9751  160.1680 H   0  0  0  0  0  0  0  0  0  0  0  0
  132.1834  140.1220  160.0951 H   0  0  0  0  0  0  0  0  0  0  0  0
  133.2779  138.8898  158.4115 H   0  0  0  0  0  0  0  0  0  0  0  0
  135.7675  138.4981  158.4377 H   0  0  0  0  0  0  0  0  0  0  0  0
  135.3607  140.2309  158.4281 H   0  0  0  0  0  0  0  0  0  0  0  0
  135.8729  139.4454  159.9410 H   0  0  0  0  0  0  0  0  0  0  0  0
  131.6028  133.0841  156.3774 H   0  0  0  0  0  0  0  0  0  0  0  0
  130.4534  131.9854  155.5773 H   0  0  0  0  0  0  0  0  0  0  0  0
  130.0105  133.6864  155.8578 H   0  0  0  0  0  0  0  0  0  0  0  0
  130.7774  130.4579  157.5861 H   0  0  0  0  0  0  0  0  0  0  0  0
  131.8229  131.6655  158.3716 H   0  0  0  0  0  0  0  0  0  0  0  0
  130.2298  131.7029  160.1511 H   0  0  0  0  0  0  0  0  0  0  0  0
  1  2  1  0
  1 34  1  0
  1 35  1  0
  1 36  1  0
  2  3  1  0
  2  5  1  0
  2 37  1  6
  3  4  1  0
  3 38  1  0
  3 39  1  0
  4 40  1  0
  5 32  1  0
  5  6  2  0
  6  7  1  0
  6 41  1  0
  7  8  1  0
  7 31  2  0
  8  9  1  0
  8 26  1  0
  9 10  2  0
  9 42  1  0
 10 11  1  0
 10 43  1  0
 11 12  1  0
 11 44  1  0
 11 45  1  0
 12 13  1  0
 12 14  1  0
 12 15  1  0
 15 16  1  1
 15 24  1  0
 15 17  1  0
 17 22  1  0
 17 18  2  0
 18 19  1  0
 18 46  1  0
 19 20  2  0
 19 47  1  0
 20 21  1  0
 20 48  1  0
 21 22  2  0
 21 49  1  0
 22 23  1  0
 23 24  1  0
 23 50  1  0
 23 51  1  0
 24 25  1  0
 24 52  1  6
 25 53  1  0
 25 54  1  0
 25 55  1  0
 26 27  1  6
 26 28  1  0
 26 29  1  0
 28 56  1  0
 28 57  1  0
 28 58  1  0
 29 30  1  0
 29 59  1  0
 29 60  1  0
 30 61  1  0
 31 32  1  0
 32 33  1  0
M  CHG  1  12   1
M  END
>  <DOCK_score>  (1) 
-43.993317

>  <SMILES>  (1) 
CC(CO)c1cc(N(C=CC[NH2+][C@@H]2c3ccccc3CC2C)[C@@H](C)CO)n[nH]1

$$$$
