Cc1c(N2CC=CC2C[NH+]=C(NC[C@H]2CC(O)C2(C)C)NC2CCCCCC2)ccc2c1CCC2
     RDKit          3D

 82 86  0  0  1  0  0  0  0  0999 V2000
  134.2693  138.3497  163.5217 C   0  0  0  0  0  0  0  0  0  0  0  0
  133.2986  139.3078  162.8809 C   0  0  0  0  0  0  0  0  0  0  0  0
  133.3369  139.5184  161.5092 C   0  0  0  0  0  0  0  0  0  0  0  0
  134.2731  138.8434  160.7226 N   0  0  0  0  0  0  0  0  0  0  0  0
  135.0614  139.7937  159.9024 C   0  0  0  0  0  0  0  0  0  0  0  0
  135.3229  139.0758  158.5986 C   0  0  0  0  0  0  0  0  0  0  0  0
  134.4961  138.0648  158.4826 C   0  0  0  0  0  0  0  0  0  0  0  0
  133.6025  138.0060  159.6998 C   0  0  1  0  0  0  0  0  0  0  0  0
  133.4759  136.5640  160.1953 C   0  0  0  0  0  0  0  0  0  0  0  0
  132.3357  136.4599  161.1092 N   0  0  0  0  0  0  0  0  0  0  0  0
  132.0735  137.2238  161.6465 H   0  0  0  0  0  0  0  0  0  0  0  0
  131.6737  135.3409  161.2003 C   0  0  0  0  0  0  0  0  0  0  0  0
  130.6035  135.2431  162.0580 N   0  0  0  0  0  0  0  0  0  0  0  0
  130.2073  136.3966  162.8694 C   0  0  0  0  0  0  0  0  0  0  0  0
  128.9981  136.0239  163.7296 C   0  0  1  0  0  0  0  0  0  0  0  0
  129.2003  135.1944  164.4073 H   0  0  0  0  0  0  0  0  0  0  0  0
  128.3335  137.2302  164.4136 C   0  0  0  0  0  0  0  0  0  0  0  0
  126.9829  136.5697  164.0902 C   0  0  1  0  0  0  0  0  0  0  0  0
  125.9794  137.4956  163.6682 O   0  0  0  0  0  0  0  0  0  0  0  0
  127.6974  135.8597  162.9258 C   0  0  0  0  0  0  0  0  0  0  0  0
  127.6797  136.6554  161.6192 C   0  0  0  0  0  0  0  0  0  0  0  0
  127.2710  134.4019  162.7411 C   0  0  0  0  0  0  0  0  0  0  0  0
  132.0453  134.2583  160.4387 N   0  0  0  0  0  0  0  0  0  0  0  0
  131.0386  133.2841  160.0101 C   0  0  0  0  0  0  0  0  0  0  0  0
  131.7397  132.1485  159.2370 C   0  0  0  0  0  0  0  0  0  0  0  0
  130.8430  130.9392  159.2476 C   0  0  0  0  0  0  0  0  0  0  0  0
  129.9542  130.8558  157.9919 C   0  0  0  0  0  0  0  0  0  0  0  0
  129.3706  132.2213  157.5814 C   0  0  0  0  0  0  0  0  0  0  0  0
  128.8972  133.0239  158.7629 C   0  0  0  0  0  0  0  0  0  0  0  0
  130.0366  133.9654  159.2038 C   0  0  0  0  0  0  0  0  0  0  0  0
  132.4449  140.4068  160.9226 C   0  0  0  0  0  0  0  0  0  0  0  0
  131.5183  141.0665  161.7041 C   0  0  0  0  0  0  0  0  0  0  0  0
  131.4808  140.8554  163.0726 C   0  0  0  0  0  0  0  0  0  0  0  0
  132.3716  139.9757  163.6608 C   0  0  0  0  0  0  0  0  0  0  0  0
  132.1276  139.9227  165.1539 C   0  0  0  0  0  0  0  0  0  0  0  0
  131.2932  141.1815  165.4719 C   0  0  0  0  0  0  0  0  0  0  0  0
  130.5781  141.4526  164.1313 C   0  0  0  0  0  0  0  0  0  0  0  0
  135.1519  138.8954  163.8551 H   0  0  0  0  0  0  0  0  0  0  0  0
  133.7944  137.8693  164.3772 H   0  0  0  0  0  0  0  0  0  0  0  0
  134.5635  137.5911  162.7963 H   0  0  0  0  0  0  0  0  0  0  0  0
  134.4889  140.7038  159.7241 H   0  0  0  0  0  0  0  0  0  0  0  0
  136.0021  140.0312  160.3994 H   0  0  0  0  0  0  0  0  0  0  0  0
  136.0738  139.3532  157.8737 H   0  0  0  0  0  0  0  0  0  0  0  0
  134.4596  137.3799  157.6485 H   0  0  0  0  0  0  0  0  0  0  0  0
  132.6184  138.4118  159.4656 H   0  0  0  0  0  0  0  0  0  0  0  0
  134.3884  136.2784  160.7188 H   0  0  0  0  0  0  0  0  0  0  0  0
  133.3219  135.8998  159.3449 H   0  0  0  0  0  0  0  0  0  0  0  0
  130.1108  134.4102  162.1257 H   0  0  0  0  0  0  0  0  0  0  0  0
  131.0358  136.6888  163.5145 H   0  0  0  0  0  0  0  0  0  0  0  0
  129.9453  137.2282  162.2153 H   0  0  0  0  0  0  0  0  0  0  0  0
  128.5424  137.2966  165.4813 H   0  0  0  0  0  0  0  0  0  0  0  0
  128.4951  138.1726  163.8902 H   0  0  0  0  0  0  0  0  0  0  0  0
  126.6329  135.8889  164.8661 H   0  0  0  0  0  0  0  0  0  0  0  0
  125.2454  137.0883  163.1882 H   0  0  0  0  0  0  0  0  0  0  0  0
  128.4392  136.2618  160.9437 H   0  0  0  0  0  0  0  0  0  0  0  0
  126.6982  136.5674  161.1533 H   0  0  0  0  0  0  0  0  0  0  0  0
  127.8891  137.7042  161.8297 H   0  0  0  0  0  0  0  0  0  0  0  0
  127.1103  133.9439  163.7171 H   0  0  0  0  0  0  0  0  0  0  0  0
  126.3463  134.3640  162.1653 H   0  0  0  0  0  0  0  0  0  0  0  0
  128.0526  133.8593  162.2094 H   0  0  0  0  0  0  0  0  0  0  0  0
  132.9746  134.1374  160.1885 H   0  0  0  0  0  0  0  0  0  0  0  0
  130.5557  132.8645  160.8927 H   0  0  0  0  0  0  0  0  0  0  0  0
  131.9209  132.4629  158.2091 H   0  0  0  0  0  0  0  0  0  0  0  0
  132.6858  131.9059  159.7209 H   0  0  0  0  0  0  0  0  0  0  0  0
  130.2041  130.9807  160.1297 H   0  0  0  0  0  0  0  0  0  0  0  0
  131.4612  130.0432  159.3022 H   0  0  0  0  0  0  0  0  0  0  0  0
  129.1324  130.1670  158.1880 H   0  0  0  0  0  0  0  0  0  0  0  0
  130.5500  130.4658  157.1667 H   0  0  0  0  0  0  0  0  0  0  0  0
  128.5302  132.0572  156.9070 H   0  0  0  0  0  0  0  0  0  0  0  0
  130.1389  132.7878  157.0553 H   0  0  0  0  0  0  0  0  0  0  0  0
  128.6393  132.3526  159.5819 H   0  0  0  0  0  0  0  0  0  0  0  0
  128.0247  133.6127  158.4798 H   0  0  0  0  0  0  0  0  0  0  0  0
  129.6128  134.7842  159.7852 H   0  0  0  0  0  0  0  0  0  0  0  0
  130.5177  134.3770  158.3166 H   0  0  0  0  0  0  0  0  0  0  0  0
  132.4735  140.5775  159.8567 H   0  0  0  0  0  0  0  0  0  0  0  0
  130.8221  141.7541  161.2471 H   0  0  0  0  0  0  0  0  0  0  0  0
  131.5694  139.0233  165.4142 H   0  0  0  0  0  0  0  0  0  0  0  0
  133.0745  139.9503  165.6932 H   0  0  0  0  0  0  0  0  0  0  0  0
  131.9395  142.0166  165.7420 H   0  0  0  0  0  0  0  0  0  0  0  0
  130.5705  140.9814  166.2630 H   0  0  0  0  0  0  0  0  0  0  0  0
  130.4668  142.5252  163.9722 H   0  0  0  0  0  0  0  0  0  0  0  0
  129.6032  140.9653  164.1156 H   0  0  0  0  0  0  0  0  0  0  0  0
  1  2  1  0
  1 38  1  0
  1 39  1  0
  1 40  1  0
  2 34  2  0
  2  3  1  0
  3  4  1  0
  3 31  2  0
  4  8  1  0
  4  5  1  0
  5  6  1  0
  5 41  1  0
  5 42  1  0
  6  7  2  0
  6 43  1  0
  7  8  1  0
  7 44  1  0
  8  9  1  0
  8 45  1  6
  9 10  1  0
  9 46  1  0
  9 47  1  0
 10 11  1  0
 12 10  2  0
 12 13  1  0
 12 23  1  0
 13 14  1  0
 13 48  1  0
 14 15  1  0
 14 49  1  0
 14 50  1  0
 15 16  1  1
 15 20  1  0
 15 17  1  0
 17 18  1  0
 17 51  1  0
 17 52  1  0
 18 19  1  0
 18 20  1  0
 18 53  1  1
 19 54  1  0
 20 21  1  0
 20 22  1  0
 21 55  1  0
 21 56  1  0
 21 57  1  0
 22 58  1  0
 22 59  1  0
 22 60  1  0
 23 24  1  0
 23 61  1  0
 24 30  1  0
 24 25  1  0
 24 62  1  0
 25 26  1  0
 25 63  1  0
 25 64  1  0
 26 27  1  0
 26 65  1  0
 26 66  1  0
 27 28  1  0
 27 67  1  0
 27 68  1  0
 28 29  1  0
 28 69  1  0
 28 70  1  0
 29 30  1  0
 29 71  1  0
 29 72  1  0
 30 73  1  0
 30 74  1  0
 31 32  1  0
 31 75  1  0
 32 33  2  0
 32 76  1  0
 33 37  1  0
 33 34  1  0
 34 35  1  0
 35 36  1  0
 35 77  1  0
 35 78  1  0
 36 37  1  0
 36 79  1  0
 36 80  1  0
 37 81  1  0
 37 82  1  0
M  CHG  1  10   1
M  END
>  <DOCK_score>  (1) 
-46.347775

>  <SMILES>  (1) 
Cc1c(N2CC=CC2C[NH+]=C(NC[C@H]2CC(O)C2(C)C)NC2CCCCCC2)ccc2c1CCC2

$$$$
