O=CNc1cccc(Nc2[nH]cc(C3=CCN([C@H](c4ccccc4)c4ccc(Cl)cc4)CC3)[nH+]2)c1
     RDKit          3D

 62 66  0  0  1  0  0  0  0  0999 V2000
  125.5949  135.2727  158.1528 O   0  0  0  0  0  0  0  0  0  0  0  0
  125.0518  135.6712  159.1615 C   0  0  0  0  0  0  0  0  0  0  0  0
  124.9214  134.8533  160.2247 N   0  0  0  0  0  0  0  0  0  0  0  0
  125.4126  133.5444  160.1649 C   0  0  0  0  0  0  0  0  0  0  0  0
  124.8021  132.5383  160.9038 C   0  0  0  0  0  0  0  0  0  0  0  0
  125.2861  131.2456  160.8453 C   0  0  0  0  0  0  0  0  0  0  0  0
  126.3786  130.9489  160.0532 C   0  0  0  0  0  0  0  0  0  0  0  0
  126.9935  131.9503  159.3121 C   0  0  0  0  0  0  0  0  0  0  0  0
  128.0986  131.6497  158.5108 N   0  0  0  0  0  0  0  0  0  0  0  0
  129.3123  132.2765  158.7413 C   0  0  0  0  0  0  0  0  0  0  0  0
  130.4588  132.0666  158.0378 N   0  0  0  0  0  0  0  0  0  0  0  0
  130.5714  131.4571  157.2917 H   0  0  0  0  0  0  0  0  0  0  0  0
  131.4263  132.8763  158.5785 C   0  0  0  0  0  0  0  0  0  0  0  0
  130.8436  133.5591  159.5985 C   0  0  0  0  0  0  0  0  0  0  0  0
  131.5052  134.5500  160.4720 C   0  0  0  0  0  0  0  0  0  0  0  0
  132.7768  134.8198  160.2700 C   0  0  0  0  0  0  0  0  0  0  0  0
  133.5478  135.8029  161.1031 C   0  0  0  0  0  0  0  0  0  0  0  0
  132.6265  136.6716  161.8466 N   0  0  0  0  0  0  0  0  0  0  0  0
  131.9659  137.6290  160.9493 C   0  0  2  0  0  0  0  0  0  0  0  0
  131.4001  137.0862  160.1921 H   0  0  0  0  0  0  0  0  0  0  0  0
  133.0060  138.4890  160.2788 C   0  0  0  0  0  0  0  0  0  0  0  0
  132.7751  138.9915  159.0119 C   0  0  0  0  0  0  0  0  0  0  0  0
  133.7271  139.7844  158.3987 C   0  0  0  0  0  0  0  0  0  0  0  0
  134.9141  140.0665  159.0484 C   0  0  0  0  0  0  0  0  0  0  0  0
  135.1474  139.5593  160.3131 C   0  0  0  0  0  0  0  0  0  0  0  0
  134.1933  138.7708  160.9283 C   0  0  0  0  0  0  0  0  0  0  0  0
  131.0303  138.5012  161.7461 C   0  0  0  0  0  0  0  0  0  0  0  0
  129.8942  139.0184  161.1525 C   0  0  0  0  0  0  0  0  0  0  0  0
  129.0328  139.8140  161.8843 C   0  0  0  0  0  0  0  0  0  0  0  0
  129.3138  140.1019  163.2080 C   0  0  0  0  0  0  0  0  0  0  0  0
  128.2364  141.1073  164.1258 Cl  0  0  0  0  0  0  0  0  0  0  0  0
  130.4541  139.5885  163.8000 C   0  0  0  0  0  0  0  0  0  0  0  0
  131.3117  138.7885  163.0688 C   0  0  0  0  0  0  0  0  0  0  0  0
  131.6371  135.8613  162.5731 C   0  0  0  0  0  0  0  0  0  0  0  0
  130.6979  135.2093  161.5553 C   0  0  0  0  0  0  0  0  0  0  0  0
  129.5468  133.1646  159.6759 N   0  0  0  0  0  0  0  0  0  0  0  0
  128.8973  133.4898  160.3188 H   0  0  0  0  0  0  0  0  0  0  0  0
  126.5126  133.2512  159.3727 C   0  0  0  0  0  0  0  0  0  0  0  0
  124.6728  136.6815  159.2077 H   0  0  0  0  0  0  0  0  0  0  0  0
  124.4872  135.1721  161.0314 H   0  0  0  0  0  0  0  0  0  0  0  0
  123.9485  132.7669  161.5245 H   0  0  0  0  0  0  0  0  0  0  0  0
  124.8098  130.4655  161.4206 H   0  0  0  0  0  0  0  0  0  0  0  0
  126.7550  129.9376  160.0102 H   0  0  0  0  0  0  0  0  0  0  0  0
  128.0158  131.0022  157.7934 H   0  0  0  0  0  0  0  0  0  0  0  0
  132.4537  132.9557  158.2551 H   0  0  0  0  0  0  0  0  0  0  0  0
  133.2903  134.3103  159.4680 H   0  0  0  0  0  0  0  0  0  0  0  0
  134.1808  135.2620  161.8065 H   0  0  0  0  0  0  0  0  0  0  0  0
  134.1724  136.4157  160.4530 H   0  0  0  0  0  0  0  0  0  0  0  0
  131.8493  138.7676  158.5026 H   0  0  0  0  0  0  0  0  0  0  0  0
  133.5450  140.1804  157.4106 H   0  0  0  0  0  0  0  0  0  0  0  0
  135.6595  140.6829  158.5679 H   0  0  0  0  0  0  0  0  0  0  0  0
  136.0750  139.7795  160.8206 H   0  0  0  0  0  0  0  0  0  0  0  0
  134.3755  138.3744  161.9162 H   0  0  0  0  0  0  0  0  0  0  0  0
  129.6771  138.7974  160.1178 H   0  0  0  0  0  0  0  0  0  0  0  0
  128.1429  140.2146  161.4217 H   0  0  0  0  0  0  0  0  0  0  0  0
  130.6741  139.8131  164.8333 H   0  0  0  0  0  0  0  0  0  0  0  0
  132.2020  138.3880  163.5307 H   0  0  0  0  0  0  0  0  0  0  0  0
  131.0630  136.5008  163.2437 H   0  0  0  0  0  0  0  0  0  0  0  0
  132.1478  135.0886  163.1476 H   0  0  0  0  0  0  0  0  0  0  0  0
  130.0546  135.9713  161.1154 H   0  0  0  0  0  0  0  0  0  0  0  0
  130.0835  134.4610  162.0562 H   0  0  0  0  0  0  0  0  0  0  0  0
  126.9919  134.0324  158.8013 H   0  0  0  0  0  0  0  0  0  0  0  0
  1  2  2  0
  2  3  1  0
  2 39  1  0
  3  4  1  0
  3 40  1  0
  4 38  2  0
  4  5  1  0
  5  6  2  0
  5 41  1  0
  6  7  1  0
  6 42  1  0
  7  8  2  0
  7 43  1  0
  8  9  1  0
  8 38  1  0
  9 44  1  0
 10  9  1  0
 10 36  2  0
 10 11  1  0
 11 12  1  0
 11 13  1  0
 13 14  2  0
 13 45  1  0
 14 15  1  0
 14 36  1  0
 15 35  1  0
 15 16  2  0
 16 17  1  0
 16 46  1  0
 17 18  1  0
 17 47  1  0
 17 48  1  0
 18 19  1  0
 18 34  1  0
 19 20  1  6
 19 21  1  0
 19 27  1  0
 21 26  1  0
 21 22  2  0
 22 23  1  0
 22 49  1  0
 23 24  2  0
 23 50  1  0
 24 25  1  0
 24 51  1  0
 25 26  2  0
 25 52  1  0
 26 53  1  0
 27 33  1  0
 27 28  2  0
 28 29  1  0
 28 54  1  0
 29 30  2  0
 29 55  1  0
 30 31  1  0
 30 32  1  0
 32 33  2  0
 32 56  1  0
 33 57  1  0
 34 35  1  0
 34 58  1  0
 34 59  1  0
 35 60  1  0
 35 61  1  0
 36 37  1  0
 38 62  1  0
M  CHG  1  36   1
M  END
>  <DOCK_score>  (1) 
-45.980068

>  <SMILES>  (1) 
O=CNc1cccc(Nc2[nH]cc(C3=CCN([C@H](c4ccccc4)c4ccc(Cl)cc4)CC3)[nH+]2)c1

$$$$
