O=C1CC[C@H](NC(NC2CC2)=[NH+]CCc2ccccc2Br)CN1
     RDKit          3D

 47 49  0  0  1  0  0  0  0  0999 V2000
  123.5663  133.6144  161.4629 O   0  0  0  0  0  0  0  0  0  0  0  0
  124.7360  133.8662  161.2649 C   0  0  0  0  0  0  0  0  0  0  0  0
  125.6114  132.7823  160.7044 C   0  0  0  0  0  0  0  0  0  0  0  0
  127.0839  133.1313  160.9337 C   0  0  0  0  0  0  0  0  0  0  0  0
  127.3172  134.5753  160.4733 C   0  0  2  0  0  0  0  0  0  0  0  0
  126.9488  134.6985  159.4549 H   0  0  0  0  0  0  0  0  0  0  0  0
  128.7494  134.8803  160.5181 N   0  0  0  0  0  0  0  0  0  0  0  0
  129.5368  134.6466  159.4155 C   0  0  0  0  0  0  0  0  0  0  0  0
  128.9802  134.1267  158.2709 N   0  0  0  0  0  0  0  0  0  0  0  0
  129.8190  133.8777  157.0962 C   0  0  0  0  0  0  0  0  0  0  0  0
  129.7454  132.4896  156.4569 C   0  0  0  0  0  0  0  0  0  0  0  0
  130.9848  132.8996  157.2549 C   0  0  0  0  0  0  0  0  0  0  0  0
  130.8111  134.9179  159.4555 N   0  0  0  0  0  0  0  0  0  0  0  0
  131.2774  135.1774  158.6454 H   0  0  0  0  0  0  0  0  0  0  0  0
  131.5390  134.8309  160.7238 C   0  0  0  0  0  0  0  0  0  0  0  0
  132.1372  136.1976  161.0632 C   0  0  0  0  0  0  0  0  0  0  0  0
  132.8860  136.1082  162.3680 C   0  0  0  0  0  0  0  0  0  0  0  0
  134.2296  135.7831  162.3730 C   0  0  0  0  0  0  0  0  0  0  0  0
  134.9152  135.6949  163.5701 C   0  0  0  0  0  0  0  0  0  0  0  0
  134.2587  135.9376  164.7625 C   0  0  0  0  0  0  0  0  0  0  0  0
  132.9171  136.2688  164.7581 C   0  0  0  0  0  0  0  0  0  0  0  0
  132.2305  136.3571  163.5601 C   0  0  0  0  0  0  0  0  0  0  0  0
  130.3947  136.8102  163.5533 Br  0  0  0  0  0  0  0  0  0  0  0  0
  126.5625  135.5167  161.4129 C   0  0  0  0  0  0  0  0  0  0  0  0
  125.1760  135.0908  161.5563 N   0  0  0  0  0  0  0  0  0  0  0  0
  125.4250  132.6832  159.6350 H   0  0  0  0  0  0  0  0  0  0  0  0
  125.3811  131.8397  161.2008 H   0  0  0  0  0  0  0  0  0  0  0  0
  127.7154  132.4557  160.3567 H   0  0  0  0  0  0  0  0  0  0  0  0
  127.3223  133.0410  161.9935 H   0  0  0  0  0  0  0  0  0  0  0  0
  129.1421  135.2471  161.3256 H   0  0  0  0  0  0  0  0  0  0  0  0
  128.0318  133.9247  158.2413 H   0  0  0  0  0  0  0  0  0  0  0  0
  129.9644  134.7304  156.4331 H   0  0  0  0  0  0  0  0  0  0  0  0
  129.0729  131.7617  156.9104 H   0  0  0  0  0  0  0  0  0  0  0  0
  129.8422  132.4290  155.3728 H   0  0  0  0  0  0  0  0  0  0  0  0
  131.8969  133.1086  156.6959 H   0  0  0  0  0  0  0  0  0  0  0  0
  131.1278  132.4416  158.2336 H   0  0  0  0  0  0  0  0  0  0  0  0
  132.3393  134.0964  160.6339 H   0  0  0  0  0  0  0  0  0  0  0  0
  130.8544  134.5272  161.5156 H   0  0  0  0  0  0  0  0  0  0  0  0
  131.3369  136.9323  161.1532 H   0  0  0  0  0  0  0  0  0  0  0  0
  132.8219  136.5015  160.2714 H   0  0  0  0  0  0  0  0  0  0  0  0
  134.7427  135.5932  161.4418 H   0  0  0  0  0  0  0  0  0  0  0  0
  135.9639  135.4368  163.5738 H   0  0  0  0  0  0  0  0  0  0  0  0
  134.7947  135.8687  165.6976 H   0  0  0  0  0  0  0  0  0  0  0  0
  132.4046  136.4590  165.6895 H   0  0  0  0  0  0  0  0  0  0  0  0
  127.0440  135.5118  162.3908 H   0  0  0  0  0  0  0  0  0  0  0  0
  126.5887  136.5280  161.0070 H   0  0  0  0  0  0  0  0  0  0  0  0
  124.5331  135.7388  161.8844 H   0  0  0  0  0  0  0  0  0  0  0  0
  1  2  2  0
  2 25  1  0
  2  3  1  0
  3  4  1  0
  3 26  1  0
  3 27  1  0
  4  5  1  0
  4 28  1  0
  4 29  1  0
  5  6  1  6
  5  7  1  0
  5 24  1  0
  7 30  1  0
  8  7  1  0
  8  9  1  0
  8 13  2  0
  9 10  1  0
  9 31  1  0
 10 12  1  0
 10 11  1  0
 10 32  1  0
 11 12  1  0
 11 33  1  0
 11 34  1  0
 12 35  1  0
 12 36  1  0
 13 14  1  0
 13 15  1  0
 15 16  1  0
 15 37  1  0
 15 38  1  0
 16 17  1  0
 16 39  1  0
 16 40  1  0
 17 22  1  0
 17 18  2  0
 18 19  1  0
 18 41  1  0
 19 20  2  0
 19 42  1  0
 20 21  1  0
 20 43  1  0
 21 22  2  0
 21 44  1  0
 22 23  1  0
 24 25  1  0
 24 45  1  0
 24 46  1  0
 25 47  1  0
M  CHG  1  13   1
M  END
>  <DOCK_score>  (1) 
-42.308598

>  <SMILES>  (1) 
O=C1CC[C@H](NC(NC2CC2)=[NH+]CCc2ccccc2Br)CN1

$$$$
