Cc1[nH]c(C(=O)NCc2ccccc2)c(C[NH2+]Cc2cnn(C)c2)c1C
     RDKit          3D

 52 54  0  0  0  0  0  0  0  0999 V2000
  128.8225  134.5334  157.2042 C   0  0  0  0  0  0  0  0  0  0  0  0
  129.2171  134.9604  158.5945 C   0  0  0  0  0  0  0  0  0  0  0  0
  130.3014  135.7092  158.9113 N   0  0  0  0  0  0  0  0  0  0  0  0
  130.9510  136.0589  158.2814 H   0  0  0  0  0  0  0  0  0  0  0  0
  130.3272  135.8913  160.2754 C   0  0  0  0  0  0  0  0  0  0  0  0
  131.3348  136.6435  161.0308 C   0  0  0  0  0  0  0  0  0  0  0  0
  131.0270  137.2007  162.0680 O   0  0  0  0  0  0  0  0  0  0  0  0
  132.6013  136.7174  160.5762 N   0  0  0  0  0  0  0  0  0  0  0  0
  133.6078  137.4686  161.3308 C   0  0  0  0  0  0  0  0  0  0  0  0
  134.1561  138.5777  160.4706 C   0  0  0  0  0  0  0  0  0  0  0  0
  134.5979  139.7505  161.0538 C   0  0  0  0  0  0  0  0  0  0  0  0
  135.1053  140.7662  160.2652 C   0  0  0  0  0  0  0  0  0  0  0  0
  135.1613  140.6131  158.8925 C   0  0  0  0  0  0  0  0  0  0  0  0
  134.7147  139.4423  158.3089 C   0  0  0  0  0  0  0  0  0  0  0  0
  134.2122  138.4245  159.0979 C   0  0  0  0  0  0  0  0  0  0  0  0
  129.2333  135.2383  160.8024 C   0  0  0  0  0  0  0  0  0  0  0  0
  128.8507  135.1634  162.2581 C   0  0  0  0  0  0  0  0  0  0  0  0
  127.9712  136.2917  162.5920 N   0  0  0  0  0  0  0  0  0  0  0  0
  128.4555  137.1591  162.4159 H   0  0  0  0  0  0  0  0  0  0  0  0
  127.1392  136.2495  162.0228 H   0  0  0  0  0  0  0  0  0  0  0  0
  127.5982  136.2185  164.0110 C   0  0  0  0  0  0  0  0  0  0  0  0
  126.6961  137.3760  164.3535 C   0  0  0  0  0  0  0  0  0  0  0  0
  125.3001  137.3855  164.2650 C   0  0  0  0  0  0  0  0  0  0  0  0
  124.8743  138.5614  164.6494 N   0  0  0  0  0  0  0  0  0  0  0  0
  125.9880  139.3418  164.9856 N   0  0  0  0  0  0  0  0  0  0  0  0
  125.9580  140.7277  165.4595 C   0  0  0  0  0  0  0  0  0  0  0  0
  127.0935  138.5916  164.7955 C   0  0  0  0  0  0  0  0  0  0  0  0
  128.5459  134.6583  159.7317 C   0  0  0  0  0  0  0  0  0  0  0  0
  127.2858  133.8374  159.8266 C   0  0  0  0  0  0  0  0  0  0  0  0
  128.1670  135.2858  156.7654 H   0  0  0  0  0  0  0  0  0  0  0  0
  129.7162  134.4272  156.5893 H   0  0  0  0  0  0  0  0  0  0  0  0
  128.2989  133.5787  157.2521 H   0  0  0  0  0  0  0  0  0  0  0  0
  132.8467  136.2733  159.7494 H   0  0  0  0  0  0  0  0  0  0  0  0
  133.1496  137.8939  162.2237 H   0  0  0  0  0  0  0  0  0  0  0  0
  134.4178  136.7997  161.6215 H   0  0  0  0  0  0  0  0  0  0  0  0
  134.5501  139.8721  162.1259 H   0  0  0  0  0  0  0  0  0  0  0  0
  135.4539  141.6811  160.7210 H   0  0  0  0  0  0  0  0  0  0  0  0
  135.5537  141.4083  158.2759 H   0  0  0  0  0  0  0  0  0  0  0  0
  134.7581  139.3227  157.2363 H   0  0  0  0  0  0  0  0  0  0  0  0
  133.8628  137.5101  158.6420 H   0  0  0  0  0  0  0  0  0  0  0  0
  128.3276  134.2262  162.4485 H   0  0  0  0  0  0  0  0  0  0  0  0
  129.7497  135.2090  162.8728 H   0  0  0  0  0  0  0  0  0  0  0  0
  127.0749  135.2814  164.2012 H   0  0  0  0  0  0  0  0  0  0  0  0
  128.4971  136.2640  164.6258 H   0  0  0  0  0  0  0  0  0  0  0  0
  124.6807  136.5632  163.9387 H   0  0  0  0  0  0  0  0  0  0  0  0
  126.0097  141.4045  164.6066 H   0  0  0  0  0  0  0  0  0  0  0  0
  125.0326  140.9043  166.0079 H   0  0  0  0  0  0  0  0  0  0  0  0
  126.8093  140.9056  166.1167 H   0  0  0  0  0  0  0  0  0  0  0  0
  128.1129  138.9053  164.9652 H   0  0  0  0  0  0  0  0  0  0  0  0
  126.4184  134.4928  159.7490 H   0  0  0  0  0  0  0  0  0  0  0  0
  127.2646  133.1091  159.0159 H   0  0  0  0  0  0  0  0  0  0  0  0
  127.2628  133.3163  160.7837 H   0  0  0  0  0  0  0  0  0  0  0  0
  1  2  1  0
  1 30  1  0
  1 31  1  0
  1 32  1  0
  2 28  2  0
  2  3  1  0
  3  4  1  0
  3  5  1  0
  5  6  1  0
  5 16  2  0
  6  7  2  0
  6  8  1  0
  8  9  1  0
  8 33  1  0
  9 10  1  0
  9 34  1  0
  9 35  1  0
 10 15  1  0
 10 11  2  0
 11 12  1  0
 11 36  1  0
 12 13  2  0
 12 37  1  0
 13 14  1  0
 13 38  1  0
 14 15  2  0
 14 39  1  0
 15 40  1  0
 16 17  1  0
 16 28  1  0
 17 18  1  0
 17 41  1  0
 17 42  1  0
 18 19  1  0
 18 20  1  0
 18 21  1  0
 21 22  1  0
 21 43  1  0
 21 44  1  0
 22 27  2  0
 22 23  1  0
 23 24  2  0
 23 45  1  0
 24 25  1  0
 25 26  1  0
 25 27  1  0
 26 46  1  0
 26 47  1  0
 26 48  1  0
 27 49  1  0
 28 29  1  0
 29 50  1  0
 29 51  1  0
 29 52  1  0
M  CHG  1  18   1
M  END
>  <DOCK_score>  (1) 
-44.650352

>  <SMILES>  (1) 
Cc1[nH]c(C(=O)NCc2ccccc2)c(C[NH2+]Cc2cnn(C)c2)c1C

$$$$
