CC1(C)C(NC2c3cc(O)ccc3-c3ccc(O)cc32)CC[C@H]1[NH2+]C1Cc2ccc(C#N)cc2C1
     RDKit          3D

 67 72  0  0  1  0  0  0  0  0999 V2000
  128.9701  136.3134  162.2532 C   0  0  0  0  0  0  0  0  0  0  0  0
  129.9233  136.1732  161.0645 C   0  0  0  0  0  0  0  0  0  0  0  0
  130.1428  137.5363  160.4056 C   0  0  0  0  0  0  0  0  0  0  0  0
  129.3456  135.1761  160.0389 C   0  0  1  0  0  0  0  0  0  0  0  0
  128.6752  135.8932  158.9460 N   0  0  0  0  0  0  0  0  0  0  0  0
  127.7362  135.0135  158.2372 C   0  0  0  0  0  0  0  0  0  0  0  0
  126.7310  134.4390  159.2051 C   0  0  0  0  0  0  0  0  0  0  0  0
  125.7931  135.0305  160.0232 C   0  0  0  0  0  0  0  0  0  0  0  0
  124.9809  134.2445  160.8297 C   0  0  0  0  0  0  0  0  0  0  0  0
  124.0553  134.8275  161.6358 O   0  0  0  0  0  0  0  0  0  0  0  0
  125.1145  132.8626  160.8117 C   0  0  0  0  0  0  0  0  0  0  0  0
  126.0515  132.2672  159.9953 C   0  0  0  0  0  0  0  0  0  0  0  0
  126.8707  133.0537  159.1819 C   0  0  0  0  0  0  0  0  0  0  0  0
  127.9420  132.6811  158.2251 C   0  0  0  0  0  0  0  0  0  0  0  0
  128.4485  131.4335  157.8536 C   0  0  0  0  0  0  0  0  0  0  0  0
  129.4639  131.3497  156.9256 C   0  0  0  0  0  0  0  0  0  0  0  0
  129.9872  132.5031  156.3568 C   0  0  0  0  0  0  0  0  0  0  0  0
  130.9887  132.4162  155.4425 O   0  0  0  0  0  0  0  0  0  0  0  0
  129.4870  133.7457  156.7229 C   0  0  0  0  0  0  0  0  0  0  0  0
  128.4717  133.8335  157.6505 C   0  0  0  0  0  0  0  0  0  0  0  0
  130.5857  134.4124  159.5076 C   0  0  0  0  0  0  0  0  0  0  0  0
  131.4613  134.2614  160.7763 C   0  0  0  0  0  0  0  0  0  0  0  0
  131.2685  135.5915  161.5334 C   0  0  1  0  0  0  0  0  0  0  0  0
  131.2431  135.4093  162.6078 H   0  0  0  0  0  0  0  0  0  0  0  0
  132.3593  136.5194  161.2064 N   0  0  0  0  0  0  0  0  0  0  0  0
  132.3902  136.6637  160.2083 H   0  0  0  0  0  0  0  0  0  0  0  0
  132.2002  137.4019  161.6690 H   0  0  0  0  0  0  0  0  0  0  0  0
  133.6367  135.9526  161.6590 C   0  0  2  0  0  0  0  0  0  0  0  0
  133.5183  135.4154  163.1009 C   0  0  0  0  0  0  0  0  0  0  0  0
  134.8633  135.7048  163.7405 C   0  0  0  0  0  0  0  0  0  0  0  0
  135.4390  135.1798  164.8876 C   0  0  0  0  0  0  0  0  0  0  0  0
  136.6923  135.5884  165.2891 C   0  0  0  0  0  0  0  0  0  0  0  0
  137.3870  136.5371  164.5358 C   0  0  0  0  0  0  0  0  0  0  0  0
  138.6896  136.9683  164.9451 C   0  0  0  0  0  0  0  0  0  0  0  0
  139.7231  137.3104  165.2697 N   0  0  0  0  0  0  0  0  0  0  0  0
  136.8042  137.0626  163.3824 C   0  0  0  0  0  0  0  0  0  0  0  0
  135.5464  136.6452  162.9895 C   0  0  0  0  0  0  0  0  0  0  0  0
  134.7076  137.0551  161.7976 C   0  0  0  0  0  0  0  0  0  0  0  0
  129.4099  136.9804  162.9948 H   0  0  0  0  0  0  0  0  0  0  0  0
  128.0209  136.7258  161.9110 H   0  0  0  0  0  0  0  0  0  0  0  0
  128.8006  135.3339  162.7005 H   0  0  0  0  0  0  0  0  0  0  0  0
  130.8029  137.4222  159.5457 H   0  0  0  0  0  0  0  0  0  0  0  0
  129.1849  137.9396  160.0772 H   0  0  0  0  0  0  0  0  0  0  0  0
  130.5970  138.2183  161.1243 H   0  0  0  0  0  0  0  0  0  0  0  0
  128.6530  134.4882  160.5238 H   0  0  0  0  0  0  0  0  0  0  0  0
  129.3482  136.2921  158.3089 H   0  0  0  0  0  0  0  0  0  0  0  0
  127.2259  135.5673  157.4491 H   0  0  0  0  0  0  0  0  0  0  0  0
  125.6893  136.1054  160.0366 H   0  0  0  0  0  0  0  0  0  0  0  0
  124.0367  135.7927  161.5794 H   0  0  0  0  0  0  0  0  0  0  0  0
  124.4818  132.2524  161.4393 H   0  0  0  0  0  0  0  0  0  0  0  0
  126.1524  131.1920  159.9842 H   0  0  0  0  0  0  0  0  0  0  0  0
  128.0441  130.5339  158.2938 H   0  0  0  0  0  0  0  0  0  0  0  0
  129.8536  130.3839  156.6398 H   0  0  0  0  0  0  0  0  0  0  0  0
  131.2868  133.2712  155.1033 H   0  0  0  0  0  0  0  0  0  0  0  0
  129.8934  134.6430  156.2804 H   0  0  0  0  0  0  0  0  0  0  0  0
  131.1034  134.9990  158.7486 H   0  0  0  0  0  0  0  0  0  0  0  0
  130.3020  133.4357  159.1155 H   0  0  0  0  0  0  0  0  0  0  0  0
  132.5080  134.1259  160.5035 H   0  0  0  0  0  0  0  0  0  0  0  0
  131.1145  133.4239  161.3817 H   0  0  0  0  0  0  0  0  0  0  0  0
  133.9731  135.1689  160.9801 H   0  0  0  0  0  0  0  0  0  0  0  0
  132.7258  135.9392  163.6356 H   0  0  0  0  0  0  0  0  0  0  0  0
  133.3235  134.3430  163.0902 H   0  0  0  0  0  0  0  0  0  0  0  0
  134.9017  134.4462  165.4702 H   0  0  0  0  0  0  0  0  0  0  0  0
  137.1359  135.1759  166.1832 H   0  0  0  0  0  0  0  0  0  0  0  0
  137.3365  137.7968  162.7961 H   0  0  0  0  0  0  0  0  0  0  0  0
  135.3232  137.0995  160.8992 H   0  0  0  0  0  0  0  0  0  0  0  0
  134.2353  138.0201  161.9813 H   0  0  0  0  0  0  0  0  0  0  0  0
  1  2  1  0
  1 39  1  0
  1 40  1  0
  1 41  1  0
  2 23  1  0
  2  3  1  0
  2  4  1  0
  3 42  1  0
  3 43  1  0
  3 44  1  0
  4  5  1  0
  4 21  1  0
  4 45  1  1
  5  6  1  0
  5 46  1  0
  6 20  1  0
  6  7  1  0
  6 47  1  0
  7 13  1  0
  7  8  2  0
  8  9  1  0
  8 48  1  0
  9 10  1  0
  9 11  2  0
 10 49  1  0
 11 12  1  0
 11 50  1  0
 12 13  2  0
 12 51  1  0
 13 14  1  0
 14 20  2  0
 14 15  1  0
 15 16  2  0
 15 52  1  0
 16 17  1  0
 16 53  1  0
 17 18  1  0
 17 19  2  0
 18 54  1  0
 19 20  1  0
 19 55  1  0
 21 22  1  0
 21 56  1  0
 21 57  1  0
 22 23  1  0
 22 58  1  0
 22 59  1  0
 23 24  1  1
 23 25  1  0
 25 26  1  0
 25 27  1  0
 25 28  1  0
 28 38  1  0
 28 29  1  0
 28 60  1  6
 29 30  1  0
 29 61  1  0
 29 62  1  0
 30 37  2  0
 30 31  1  0
 31 32  2  0
 31 63  1  0
 32 33  1  0
 32 64  1  0
 33 34  1  0
 33 36  2  0
 34 35  3  0
 36 37  1  0
 36 65  1  0
 37 38  1  0
 38 66  1  0
 38 67  1  0
M  CHG  1  25   1
M  END
>  <DOCK_score>  (1) 
-52.673409

>  <SMILES>  (1) 
CC1(C)C(NC2c3cc(O)ccc3-c3ccc(O)cc32)CC[C@H]1[NH2+]C1Cc2ccc(C#N)cc2C1

$$$$
