CC1=CC[C@H]([NH2+]Cc2c[nH]nc2-c2ccc(NCCc3ccco3)o2)CC1
     RDKit          3D

 54 57  0  0  1  0  0  0  0  0999 V2000
  130.4000  129.3609  158.2979 C   0  0  0  0  0  0  0  0  0  0  0  0
  130.6482  130.8309  158.5181 C   0  0  0  0  0  0  0  0  0  0  0  0
  130.3602  131.6460  157.5548 C   0  0  0  0  0  0  0  0  0  0  0  0
  130.5609  133.1317  157.6223 C   0  0  0  0  0  0  0  0  0  0  0  0
  130.7335  133.5747  159.0767 C   0  0  2  0  0  0  0  0  0  0  0  0
  129.7857  133.4803  159.6068 H   0  0  0  0  0  0  0  0  0  0  0  0
  131.1846  134.9721  159.1171 N   0  0  0  0  0  0  0  0  0  0  0  0
  130.6985  135.5031  158.4100 H   0  0  0  0  0  0  0  0  0  0  0  0
  132.1777  135.0103  158.9429 H   0  0  0  0  0  0  0  0  0  0  0  0
  130.8973  135.5414  160.4405 C   0  0  0  0  0  0  0  0  0  0  0  0
  131.3601  136.9750  160.4820 C   0  0  0  0  0  0  0  0  0  0  0  0
  132.5431  137.4422  160.0287 C   0  0  0  0  0  0  0  0  0  0  0  0
  132.5766  138.7752  160.2439 N   0  0  0  0  0  0  0  0  0  0  0  0
  133.3076  139.3702  160.0148 H   0  0  0  0  0  0  0  0  0  0  0  0
  131.3755  139.1489  160.8601 N   0  0  0  0  0  0  0  0  0  0  0  0
  130.6367  138.0667  161.0066 C   0  0  0  0  0  0  0  0  0  0  0  0
  129.2902  138.0080  161.6119 C   0  0  0  0  0  0  0  0  0  0  0  0
  128.5997  139.0618  162.1214 C   0  0  0  0  0  0  0  0  0  0  0  0
  127.3698  138.5569  162.5875 C   0  0  0  0  0  0  0  0  0  0  0  0
  127.3739  137.2217  162.3484 C   0  0  0  0  0  0  0  0  0  0  0  0
  126.3480  136.3375  162.6612 N   0  0  0  0  0  0  0  0  0  0  0  0
  126.4862  134.9138  162.3450 C   0  0  0  0  0  0  0  0  0  0  0  0
  125.9414  134.6481  160.9402 C   0  0  0  0  0  0  0  0  0  0  0  0
  126.0835  133.1835  160.6148 C   0  0  0  0  0  0  0  0  0  0  0  0
  125.1708  132.2289  160.8700 C   0  0  0  0  0  0  0  0  0  0  0  0
  125.7111  131.0097  160.4002 C   0  0  0  0  0  0  0  0  0  0  0  0
  126.9250  131.2909  159.8938 C   0  0  0  0  0  0  0  0  0  0  0  0
  127.1453  132.6091  160.0265 O   0  0  0  0  0  0  0  0  0  0  0  0
  128.5372  136.8975  161.7589 O   0  0  0  0  0  0  0  0  0  0  0  0
  131.7854  132.6742  159.7367 C   0  0  0  0  0  0  0  0  0  0  0  0
  131.2137  131.2584  159.8408 C   0  0  0  0  0  0  0  0  0  0  0  0
  129.3881  129.1113  158.6178 H   0  0  0  0  0  0  0  0  0  0  0  0
  130.5141  129.1276  157.2392 H   0  0  0  0  0  0  0  0  0  0  0  0
  131.1177  128.7803  158.8773 H   0  0  0  0  0  0  0  0  0  0  0  0
  129.9503  131.2312  156.6458 H   0  0  0  0  0  0  0  0  0  0  0  0
  129.6939  133.6333  157.1923 H   0  0  0  0  0  0  0  0  0  0  0  0
  131.4508  133.4023  157.0541 H   0  0  0  0  0  0  0  0  0  0  0  0
  131.4225  134.9680  161.2044 H   0  0  0  0  0  0  0  0  0  0  0  0
  129.8245  135.5003  160.6286 H   0  0  0  0  0  0  0  0  0  0  0  0
  133.3249  136.8534  159.5721 H   0  0  0  0  0  0  0  0  0  0  0  0
  128.9296  140.0896  162.1598 H   0  0  0  0  0  0  0  0  0  0  0  0
  126.5764  139.1242  163.0514 H   0  0  0  0  0  0  0  0  0  0  0  0
  125.5405  136.6632  163.0888 H   0  0  0  0  0  0  0  0  0  0  0  0
  127.5386  134.6330  162.3856 H   0  0  0  0  0  0  0  0  0  0  0  0
  125.9246  134.3245  163.0699 H   0  0  0  0  0  0  0  0  0  0  0  0
  124.8890  134.9289  160.8996 H   0  0  0  0  0  0  0  0  0  0  0  0
  126.5030  135.2374  160.2153 H   0  0  0  0  0  0  0  0  0  0  0  0
  124.2089  132.3675  161.3409 H   0  0  0  0  0  0  0  0  0  0  0  0
  125.2408  130.0384  160.4431 H   0  0  0  0  0  0  0  0  0  0  0  0
  127.6071  130.5776  159.4551 H   0  0  0  0  0  0  0  0  0  0  0  0
  132.6896  132.6604  159.1281 H   0  0  0  0  0  0  0  0  0  0  0  0
  132.0192  133.0524  160.7319 H   0  0  0  0  0  0  0  0  0  0  0  0
  132.0058  130.5697  160.1348 H   0  0  0  0  0  0  0  0  0  0  0  0
  130.4254  131.2417  160.5933 H   0  0  0  0  0  0  0  0  0  0  0  0
  1  2  1  0
  1 32  1  0
  1 33  1  0
  1 34  1  0
  2 31  1  0
  2  3  2  0
  3  4  1  0
  3 35  1  0
  4  5  1  0
  4 36  1  0
  4 37  1  0
  5  6  1  1
  5  7  1  0
  5 30  1  0
  7  8  1  0
  7  9  1  0
  7 10  1  0
 10 11  1  0
 10 38  1  0
 10 39  1  0
 11 16  1  0
 11 12  2  0
 12 13  1  0
 12 40  1  0
 13 14  1  0
 13 15  1  0
 15 16  2  0
 16 17  1  0
 17 29  1  0
 17 18  2  0
 18 19  1  0
 18 41  1  0
 19 20  2  0
 19 42  1  0
 20 21  1  0
 20 29  1  0
 21 22  1  0
 21 43  1  0
 22 23  1  0
 22 44  1  0
 22 45  1  0
 23 24  1  0
 23 46  1  0
 23 47  1  0
 24 28  1  0
 24 25  2  0
 25 26  1  0
 25 48  1  0
 26 27  2  0
 26 49  1  0
 27 28  1  0
 27 50  1  0
 30 31  1  0
 30 51  1  0
 30 52  1  0
 31 53  1  0
 31 54  1  0
M  CHG  1   7   1
M  END
>  <DOCK_score>  (1) 
-50.138939

>  <SMILES>  (1) 
CC1=CC[C@H]([NH2+]Cc2c[nH]nc2-c2ccc(NCCc3ccco3)o2)CC1

$$$$
