Nc1cccc([C@H](Nc2[nH]cc(-c3ccc(Br)cc3)[nH+]2)c2cccc(C3CC3)c2)c1
     RDKit          3D

 54 58  0  0  1  0  0  0  0  0999 V2000
  130.4984  138.2590  164.0873 N   0  0  0  0  0  0  0  0  0  0  0  0
  130.3533  138.0558  162.7130 C   0  0  0  0  0  0  0  0  0  0  0  0
  130.5101  139.1185  161.8318 C   0  0  0  0  0  0  0  0  0  0  0  0
  130.3664  138.9140  160.4738 C   0  0  0  0  0  0  0  0  0  0  0  0
  130.0724  137.6521  159.9901 C   0  0  0  0  0  0  0  0  0  0  0  0
  129.9102  136.5936  160.8648 C   0  0  0  0  0  0  0  0  0  0  0  0
  129.5838  135.2216  160.3336 C   0  0  2  0  0  0  0  0  0  0  0  0
  129.9973  134.4656  161.0012 H   0  0  0  0  0  0  0  0  0  0  0  0
  130.1649  135.0640  158.9980 N   0  0  0  0  0  0  0  0  0  0  0  0
  129.9958  133.8774  158.3052 C   0  0  0  0  0  0  0  0  0  0  0  0
  129.3138  132.7882  158.7531 N   0  0  0  0  0  0  0  0  0  0  0  0
  128.8600  132.7055  159.6064 H   0  0  0  0  0  0  0  0  0  0  0  0
  129.3816  131.8298  157.7711 C   0  0  0  0  0  0  0  0  0  0  0  0
  130.1024  132.3604  156.7525 C   0  0  0  0  0  0  0  0  0  0  0  0
  130.4350  131.6854  155.4741 C   0  0  0  0  0  0  0  0  0  0  0  0
  130.0080  132.2299  154.2642 C   0  0  0  0  0  0  0  0  0  0  0  0
  130.3255  131.6014  153.0774 C   0  0  0  0  0  0  0  0  0  0  0  0
  131.0558  130.4253  153.0881 C   0  0  0  0  0  0  0  0  0  0  0  0
  131.4797  129.5647  151.4585 Br  0  0  0  0  0  0  0  0  0  0  0  0
  131.4774  129.8777  154.2871 C   0  0  0  0  0  0  0  0  0  0  0  0
  131.1705  130.5016  155.4791 C   0  0  0  0  0  0  0  0  0  0  0  0
  130.4657  133.6180  157.1095 N   0  0  0  0  0  0  0  0  0  0  0  0
  130.9889  134.2278  156.5662 H   0  0  0  0  0  0  0  0  0  0  0  0
  128.0880  135.0567  160.2532 C   0  0  0  0  0  0  0  0  0  0  0  0
  127.3403  135.9082  159.4611 C   0  0  0  0  0  0  0  0  0  0  0  0
  125.9690  135.7540  159.3837 C   0  0  0  0  0  0  0  0  0  0  0  0
  125.3437  134.7552  160.1060 C   0  0  0  0  0  0  0  0  0  0  0  0
  126.0906  133.9071  160.9026 C   0  0  0  0  0  0  0  0  0  0  0  0
  125.4092  132.8185  161.6907 C   0  0  0  0  0  0  0  0  0  0  0  0
  125.9560  131.3965  161.5501 C   0  0  0  0  0  0  0  0  0  0  0  0
  124.6183  131.7686  160.9075 C   0  0  0  0  0  0  0  0  0  0  0  0
  127.4630  134.0581  160.9758 C   0  0  0  0  0  0  0  0  0  0  0  0
  130.0526  136.7910  162.2244 C   0  0  0  0  0  0  0  0  0  0  0  0
  130.3891  137.5163  164.7016 H   0  0  0  0  0  0  0  0  0  0  0  0
  130.7085  139.1428  164.4275 H   0  0  0  0  0  0  0  0  0  0  0  0
  130.7444  140.1031  162.2085 H   0  0  0  0  0  0  0  0  0  0  0  0
  130.4881  139.7396  159.7882 H   0  0  0  0  0  0  0  0  0  0  0  0
  129.9653  137.4938  158.9271 H   0  0  0  0  0  0  0  0  0  0  0  0
  130.6681  135.7910  158.5991 H   0  0  0  0  0  0  0  0  0  0  0  0
  128.9444  130.8428  157.8042 H   0  0  0  0  0  0  0  0  0  0  0  0
  129.4337  133.1444  154.2552 H   0  0  0  0  0  0  0  0  0  0  0  0
  129.9993  132.0249  152.1391 H   0  0  0  0  0  0  0  0  0  0  0  0
  132.0470  128.9601  154.2899 H   0  0  0  0  0  0  0  0  0  0  0  0
  131.5003  130.0734  156.4143 H   0  0  0  0  0  0  0  0  0  0  0  0
  127.8281  136.6914  158.8998 H   0  0  0  0  0  0  0  0  0  0  0  0
  125.3853  136.4167  158.7619 H   0  0  0  0  0  0  0  0  0  0  0  0
  124.2717  134.6377  160.0488 H   0  0  0  0  0  0  0  0  0  0  0  0
  125.0229  133.1154  162.6658 H   0  0  0  0  0  0  0  0  0  0  0  0
  126.8088  131.2484  160.8876 H   0  0  0  0  0  0  0  0  0  0  0  0
  125.9298  130.7575  162.4329 H   0  0  0  0  0  0  0  0  0  0  0  0
  123.7120  131.3745  161.3675 H   0  0  0  0  0  0  0  0  0  0  0  0
  124.5910  131.8654  159.8222 H   0  0  0  0  0  0  0  0  0  0  0  0
  128.0465  133.3957  161.5982 H   0  0  0  0  0  0  0  0  0  0  0  0
  129.9304  135.9628  162.9067 H   0  0  0  0  0  0  0  0  0  0  0  0
  1  2  1  0
  1 34  1  0
  1 35  1  0
  2 33  2  0
  2  3  1  0
  3  4  2  0
  3 36  1  0
  4  5  1  0
  4 37  1  0
  5  6  2  0
  5 38  1  0
  6  7  1  0
  6 33  1  0
  7  8  1  1
  7  9  1  0
  7 24  1  0
  9 39  1  0
 10  9  1  0
 10 22  2  0
 10 11  1  0
 11 12  1  0
 11 13  1  0
 13 14  2  0
 13 40  1  0
 14 15  1  0
 14 22  1  0
 15 21  1  0
 15 16  2  0
 16 17  1  0
 16 41  1  0
 17 18  2  0
 17 42  1  0
 18 19  1  0
 18 20  1  0
 20 21  2  0
 20 43  1  0
 21 44  1  0
 22 23  1  0
 24 32  1  0
 24 25  2  0
 25 26  1  0
 25 45  1  0
 26 27  2  0
 26 46  1  0
 27 28  1  0
 27 47  1  0
 28 29  1  0
 28 32  2  0
 29 31  1  0
 29 30  1  0
 29 48  1  0
 30 31  1  0
 30 49  1  0
 30 50  1  0
 31 51  1  0
 31 52  1  0
 32 53  1  0
 33 54  1  0
M  CHG  1  22   1
M  END
>  <DOCK_score>  (1) 
-62.270626

>  <SMILES>  (1) 
Nc1cccc([C@H](Nc2[nH]cc(-c3ccc(Br)cc3)[nH+]2)c2cccc(C3CC3)c2)c1

$$$$
