Cc1ccc(-c2cc(=O)c2=O)cc1CN1CC[NH+]([C@@H](c2ccccc2)c2ccccc2Cl)CC1
     RDKit          3D

 62 66  0  0  1  0  0  0  0  0999 V2000
  135.9294  140.7236  160.7339 C   0  0  0  0  0  0  0  0  0  0  0  0
  135.8763  139.6076  161.7452 C   0  0  0  0  0  0  0  0  0  0  0  0
  136.8434  139.5263  162.7324 C   0  0  0  0  0  0  0  0  0  0  0  0
  136.8046  138.5050  163.6577 C   0  0  0  0  0  0  0  0  0  0  0  0
  135.7822  137.5529  163.6004 C   0  0  0  0  0  0  0  0  0  0  0  0
  135.7340  136.4572  164.5862 C   0  0  0  0  0  0  0  0  0  0  0  0
  134.8895  135.3814  164.8216 C   0  0  0  0  0  0  0  0  0  0  0  0
  135.6496  134.8937  165.9788 C   0  0  0  0  0  0  0  0  0  0  0  0
  135.5687  133.9735  166.7688 O   0  0  0  0  0  0  0  0  0  0  0  0
  136.5631  136.0476  165.7436 C   0  0  0  0  0  0  0  0  0  0  0  0
  137.5667  136.4738  166.2772 O   0  0  0  0  0  0  0  0  0  0  0  0
  134.8061  137.6449  162.6040 C   0  0  0  0  0  0  0  0  0  0  0  0
  134.8580  138.6723  161.6856 C   0  0  0  0  0  0  0  0  0  0  0  0
  133.8067  138.7733  160.6106 C   0  0  0  0  0  0  0  0  0  0  0  0
  132.8453  137.6728  160.7611 N   0  0  0  0  0  0  0  0  0  0  0  0
  131.5531  138.0151  160.1502 C   0  0  0  0  0  0  0  0  0  0  0  0
  130.5643  136.8701  160.3802 C   0  0  0  0  0  0  0  0  0  0  0  0
  131.0956  135.6371  159.7844 N   0  0  0  0  0  0  0  0  0  0  0  0
  131.2399  135.7766  158.7957 H   0  0  0  0  0  0  0  0  0  0  0  0
  130.1380  134.5422  159.9897 C   0  0  1  0  0  0  0  0  0  0  0  0
  129.9816  134.3916  161.0579 H   0  0  0  0  0  0  0  0  0  0  0  0
  128.8267  134.8925  159.3346 C   0  0  0  0  0  0  0  0  0  0  0  0
  127.6426  134.4010  159.8516 C   0  0  0  0  0  0  0  0  0  0  0  0
  126.4397  134.7258  159.2532 C   0  0  0  0  0  0  0  0  0  0  0  0
  126.4213  135.5344  158.1322 C   0  0  0  0  0  0  0  0  0  0  0  0
  127.6059  136.0221  157.6124 C   0  0  0  0  0  0  0  0  0  0  0  0
  128.8086  135.7007  158.2133 C   0  0  0  0  0  0  0  0  0  0  0  0
  130.6827  133.2771  159.3784 C   0  0  0  0  0  0  0  0  0  0  0  0
  130.9616  133.2273  158.0254 C   0  0  0  0  0  0  0  0  0  0  0  0
  131.4618  132.0672  157.4648 C   0  0  0  0  0  0  0  0  0  0  0  0
  131.6835  130.9557  158.2567 C   0  0  0  0  0  0  0  0  0  0  0  0
  131.4099  131.0059  159.6104 C   0  0  0  0  0  0  0  0  0  0  0  0
  130.9043  132.1654  160.1713 C   0  0  0  0  0  0  0  0  0  0  0  0
  130.5549  132.2272  161.8706 Cl  0  0  0  0  0  0  0  0  0  0  0  0
  132.3740  135.2948  160.4217 C   0  0  0  0  0  0  0  0  0  0  0  0
  133.3779  136.4267  160.1921 C   0  0  0  0  0  0  0  0  0  0  0  0
  135.4366  141.6066  161.1410 H   0  0  0  0  0  0  0  0  0  0  0  0
  136.9690  140.9595  160.5073 H   0  0  0  0  0  0  0  0  0  0  0  0
  135.4205  140.4118  159.8217 H   0  0  0  0  0  0  0  0  0  0  0  0
  137.6324  140.2624  162.7753 H   0  0  0  0  0  0  0  0  0  0  0  0
  137.5625  138.4402  164.4244 H   0  0  0  0  0  0  0  0  0  0  0  0
  133.9946  135.0294  164.3300 H   0  0  0  0  0  0  0  0  0  0  0  0
  134.0134  136.9131  162.5535 H   0  0  0  0  0  0  0  0  0  0  0  0
  134.2811  138.7100  159.6313 H   0  0  0  0  0  0  0  0  0  0  0  0
  133.2852  139.7262  160.7007 H   0  0  0  0  0  0  0  0  0  0  0  0
  131.6867  138.1707  159.0797 H   0  0  0  0  0  0  0  0  0  0  0  0
  131.1656  138.9270  160.6047 H   0  0  0  0  0  0  0  0  0  0  0  0
  129.6094  137.1158  159.9155 H   0  0  0  0  0  0  0  0  0  0  0  0
  130.4205  136.7237  161.4507 H   0  0  0  0  0  0  0  0  0  0  0  0
  127.6572  133.7659  160.7250 H   0  0  0  0  0  0  0  0  0  0  0  0
  125.5142  134.3452  159.6595 H   0  0  0  0  0  0  0  0  0  0  0  0
  125.4818  135.7854  157.6627 H   0  0  0  0  0  0  0  0  0  0  0  0
  127.5916  136.6538  156.7365 H   0  0  0  0  0  0  0  0  0  0  0  0
  129.7339  136.0813  157.8069 H   0  0  0  0  0  0  0  0  0  0  0  0
  130.7883  134.0952  157.4063 H   0  0  0  0  0  0  0  0  0  0  0  0
  131.6792  132.0288  156.4075 H   0  0  0  0  0  0  0  0  0  0  0  0
  132.0739  130.0494  157.8179 H   0  0  0  0  0  0  0  0  0  0  0  0
  131.5870  130.1390  160.2296 H   0  0  0  0  0  0  0  0  0  0  0  0
  132.2209  135.1565  161.4920 H   0  0  0  0  0  0  0  0  0  0  0  0
  132.7608  134.3727  159.9879 H   0  0  0  0  0  0  0  0  0  0  0  0
  133.5416  136.5562  159.1223 H   0  0  0  0  0  0  0  0  0  0  0  0
  134.3220  136.1796  160.6775 H   0  0  0  0  0  0  0  0  0  0  0  0
  1  2  1  0
  1 37  1  0
  1 38  1  0
  1 39  1  0
  2 13  2  0
  2  3  1  0
  3  4  2  0
  3 40  1  0
  4  5  1  0
  4 41  1  0
  5  6  1  0
  5 12  2  0
  6 10  1  0
  6  7  2  0
  7  8  1  0
  7 42  1  0
  8  9  2  0
  8 10  1  0
 10 11  2  0
 12 13  1  0
 12 43  1  0
 13 14  1  0
 14 15  1  0
 14 44  1  0
 14 45  1  0
 15 36  1  0
 15 16  1  0
 16 17  1  0
 16 46  1  0
 16 47  1  0
 17 18  1  0
 17 48  1  0
 17 49  1  0
 18 19  1  0
 18 20  1  0
 18 35  1  0
 20 21  1  1
 20 22  1  0
 20 28  1  0
 22 27  1  0
 22 23  2  0
 23 24  1  0
 23 50  1  0
 24 25  2  0
 24 51  1  0
 25 26  1  0
 25 52  1  0
 26 27  2  0
 26 53  1  0
 27 54  1  0
 28 33  1  0
 28 29  2  0
 29 30  1  0
 29 55  1  0
 30 31  2  0
 30 56  1  0
 31 32  1  0
 31 57  1  0
 32 33  2  0
 32 58  1  0
 33 34  1  0
 35 36  1  0
 35 59  1  0
 35 60  1  0
 36 61  1  0
 36 62  1  0
M  CHG  1  18   1
M  END
>  <DOCK_score>  (1) 
-57.014854

>  <SMILES>  (1) 
Cc1ccc(-c2cc(=O)c2=O)cc1CN1CC[NH+]([C@@H](c2ccccc2)c2ccccc2Cl)CC1

$$$$
