C[C@@H](Cc1cccc(Cl)c1)[NH+]=C(NC1CCC1)N[C@H]1CCC(=O)NC1
     RDKit          3D

 53 55  0  0  1  0  0  0  0  0999 V2000
  131.1947  132.5092  159.4164 C   0  0  0  0  0  0  0  0  0  0  0  0
  130.3115  133.4176  158.5588 C   0  0  1  0  0  0  0  0  0  0  0  0
  130.9373  133.9990  157.8817 H   0  0  0  0  0  0  0  0  0  0  0  0
  129.3379  132.5622  157.7454 C   0  0  0  0  0  0  0  0  0  0  0  0
  130.0474  132.0033  156.5390 C   0  0  0  0  0  0  0  0  0  0  0  0
  130.6909  130.7822  156.6197 C   0  0  0  0  0  0  0  0  0  0  0  0
  131.3418  130.2691  155.5136 C   0  0  0  0  0  0  0  0  0  0  0  0
  131.3497  130.9765  154.3260 C   0  0  0  0  0  0  0  0  0  0  0  0
  130.7058  132.1981  154.2446 C   0  0  0  0  0  0  0  0  0  0  0  0
  130.7155  133.0871  152.7536 Cl  0  0  0  0  0  0  0  0  0  0  0  0
  130.0544  132.7113  155.3523 C   0  0  0  0  0  0  0  0  0  0  0  0
  129.5565  134.3252  159.4264 N   0  0  0  0  0  0  0  0  0  0  0  0
  128.5868  134.3115  159.4157 H   0  0  0  0  0  0  0  0  0  0  0  0
  130.1881  135.1510  160.2125 C   0  0  0  0  0  0  0  0  0  0  0  0
  131.4221  135.6370  159.8503 N   0  0  0  0  0  0  0  0  0  0  0  0
  132.1319  136.5652  160.7338 C   0  0  0  0  0  0  0  0  0  0  0  0
  133.4054  137.1588  160.1086 C   0  0  0  0  0  0  0  0  0  0  0  0
  134.0650  136.9912  161.4895 C   0  0  0  0  0  0  0  0  0  0  0  0
  133.0490  135.8672  161.7520 C   0  0  0  0  0  0  0  0  0  0  0  0
  129.6203  135.5360  161.4040 N   0  0  0  0  0  0  0  0  0  0  0  0
  128.3054  135.0181  161.7899 C   0  0  1  0  0  0  0  0  0  0  0  0
  128.1658  134.0231  161.3673 H   0  0  0  0  0  0  0  0  0  0  0  0
  128.2095  134.9458  163.3187 C   0  0  0  0  0  0  0  0  0  0  0  0
  126.9040  134.2382  163.6888 C   0  0  0  0  0  0  0  0  0  0  0  0
  125.7601  134.8364  162.9212 C   0  0  0  0  0  0  0  0  0  0  0  0
  124.6325  134.6270  163.3157 O   0  0  0  0  0  0  0  0  0  0  0  0
  125.9179  135.5848  161.8289 N   0  0  0  0  0  0  0  0  0  0  0  0
  127.2128  135.9539  161.2711 C   0  0  0  0  0  0  0  0  0  0  0  0
  131.7564  131.8340  158.7708 H   0  0  0  0  0  0  0  0  0  0  0  0
  131.8883  133.1186  159.9958 H   0  0  0  0  0  0  0  0  0  0  0  0
  130.5688  131.9279  160.0934 H   0  0  0  0  0  0  0  0  0  0  0  0
  128.4981  133.1766  157.4209 H   0  0  0  0  0  0  0  0  0  0  0  0
  128.9711  131.7426  158.3632 H   0  0  0  0  0  0  0  0  0  0  0  0
  130.6886  130.2312  157.5485 H   0  0  0  0  0  0  0  0  0  0  0  0
  131.8445  129.3153  155.5772 H   0  0  0  0  0  0  0  0  0  0  0  0
  131.8581  130.5752  153.4617 H   0  0  0  0  0  0  0  0  0  0  0  0
  129.5518  133.6652  155.2894 H   0  0  0  0  0  0  0  0  0  0  0  0
  131.8227  135.3653  159.0098 H   0  0  0  0  0  0  0  0  0  0  0  0
  131.4749  137.3126  161.1786 H   0  0  0  0  0  0  0  0  0  0  0  0
  133.8461  136.5298  159.3350 H   0  0  0  0  0  0  0  0  0  0  0  0
  133.2963  138.1982  159.7990 H   0  0  0  0  0  0  0  0  0  0  0  0
  133.9374  137.8560  162.1407 H   0  0  0  0  0  0  0  0  0  0  0  0
  135.0974  136.6448  161.4437 H   0  0  0  0  0  0  0  0  0  0  0  0
  132.6524  135.8653  162.7673 H   0  0  0  0  0  0  0  0  0  0  0  0
  133.3919  134.8843  161.4286 H   0  0  0  0  0  0  0  0  0  0  0  0
  130.0903  136.1507  161.9888 H   0  0  0  0  0  0  0  0  0  0  0  0
  129.0573  134.3860  163.7135 H   0  0  0  0  0  0  0  0  0  0  0  0
  128.2087  135.9534  163.7343 H   0  0  0  0  0  0  0  0  0  0  0  0
  126.7210  134.3504  164.7574 H   0  0  0  0  0  0  0  0  0  0  0  0
  126.9891  133.1793  163.4451 H   0  0  0  0  0  0  0  0  0  0  0  0
  125.1208  135.9036  161.3772 H   0  0  0  0  0  0  0  0  0  0  0  0
  127.4499  136.9784  161.5578 H   0  0  0  0  0  0  0  0  0  0  0  0
  127.1662  135.8855  160.1841 H   0  0  0  0  0  0  0  0  0  0  0  0
  1  2  1  0
  1 29  1  0
  1 30  1  0
  1 31  1  0
  2  3  1  6
  2  4  1  0
  2 12  1  0
  4  5  1  0
  4 32  1  0
  4 33  1  0
  5 11  1  0
  5  6  2  0
  6  7  1  0
  6 34  1  0
  7  8  2  0
  7 35  1  0
  8  9  1  0
  8 36  1  0
  9 10  1  0
  9 11  2  0
 11 37  1  0
 12 13  1  0
 14 12  2  0
 14 15  1  0
 14 20  1  0
 15 16  1  0
 15 38  1  0
 16 19  1  0
 16 17  1  0
 16 39  1  0
 17 18  1  0
 17 40  1  0
 17 41  1  0
 18 19  1  0
 18 42  1  0
 18 43  1  0
 19 44  1  0
 19 45  1  0
 20 21  1  0
 20 46  1  0
 21 22  1  6
 21 28  1  0
 21 23  1  0
 23 24  1  0
 23 47  1  0
 23 48  1  0
 24 25  1  0
 24 49  1  0
 24 50  1  0
 25 26  2  0
 25 27  1  0
 27 28  1  0
 27 51  1  0
 28 52  1  0
 28 53  1  0
M  CHG  1  12   1
M  END
>  <DOCK_score>  (1) 
-45.392609

>  <SMILES>  (1) 
C[C@@H](Cc1cccc(Cl)c1)[NH+]=C(NC1CCC1)N[C@H]1CCC(=O)NC1

$$$$
