Brc1ccc(-c2c[nH]c(NC(c3ccccc3)c3ccccc3)[nH+]2)cc1
     RDKit          3D

 45 48  0  0  1  0  0  0  0  0999 V2000
  131.2407  129.2247  152.0422 Br  0  0  0  0  0  0  0  0  0  0  0  0
  130.8852  130.2776  153.5724 C   0  0  0  0  0  0  0  0  0  0  0  0
  130.1671  131.4545  153.4480 C   0  0  0  0  0  0  0  0  0  0  0  0
  129.9049  132.2265  154.5614 C   0  0  0  0  0  0  0  0  0  0  0  0
  130.3644  131.8192  155.8126 C   0  0  0  0  0  0  0  0  0  0  0  0
  130.0856  132.6451  157.0128 C   0  0  0  0  0  0  0  0  0  0  0  0
  129.3958  132.2493  158.1112 C   0  0  0  0  0  0  0  0  0  0  0  0
  129.3786  133.3160  158.9769 N   0  0  0  0  0  0  0  0  0  0  0  0
  128.9615  133.3388  159.8524 H   0  0  0  0  0  0  0  0  0  0  0  0
  130.0516  134.3359  158.3779 C   0  0  0  0  0  0  0  0  0  0  0  0
  130.2595  135.5929  158.9196 N   0  0  0  0  0  0  0  0  0  0  0  0
  129.7341  135.9136  160.2491 C   0  0  0  0  0  0  0  0  0  0  0  0
  130.0945  137.3334  160.6026 C   0  0  0  0  0  0  0  0  0  0  0  0
  130.2824  137.6900  161.9249 C   0  0  0  0  0  0  0  0  0  0  0  0
  130.6176  138.9914  162.2488 C   0  0  0  0  0  0  0  0  0  0  0  0
  130.7548  139.9386  161.2514 C   0  0  0  0  0  0  0  0  0  0  0  0
  130.5616  139.5832  159.9295 C   0  0  0  0  0  0  0  0  0  0  0  0
  130.2315  138.2807  159.6052 C   0  0  0  0  0  0  0  0  0  0  0  0
  128.2347  135.7615  160.2468 C   0  0  0  0  0  0  0  0  0  0  0  0
  127.5760  135.3902  161.4041 C   0  0  0  0  0  0  0  0  0  0  0  0
  126.2003  135.2555  161.4032 C   0  0  0  0  0  0  0  0  0  0  0  0
  125.4843  135.4817  160.2425 C   0  0  0  0  0  0  0  0  0  0  0  0
  126.1436  135.8478  159.0840 C   0  0  0  0  0  0  0  0  0  0  0  0
  127.5188  135.9876  159.0862 C   0  0  0  0  0  0  0  0  0  0  0  0
  130.4754  133.9302  157.2058 N   0  0  0  0  0  0  0  0  0  0  0  0
  130.9861  134.4636  156.5768 H   0  0  0  0  0  0  0  0  0  0  0  0
  131.0917  130.6362  155.9314 C   0  0  0  0  0  0  0  0  0  0  0  0
  131.3438  129.8688  154.8125 C   0  0  0  0  0  0  0  0  0  0  0  0
  129.8115  131.7692  152.4780 H   0  0  0  0  0  0  0  0  0  0  0  0
  129.3446  133.1444  154.4634 H   0  0  0  0  0  0  0  0  0  0  0  0
  128.9493  131.2798  158.2758 H   0  0  0  0  0  0  0  0  0  0  0  0
  130.7496  136.2626  158.4174 H   0  0  0  0  0  0  0  0  0  0  0  0
  130.1669  135.2350  160.9841 H   0  0  0  0  0  0  0  0  0  0  0  0
  130.1710  136.9510  162.7046 H   0  0  0  0  0  0  0  0  0  0  0  0
  130.7681  139.2692  163.2817 H   0  0  0  0  0  0  0  0  0  0  0  0
  131.0123  140.9563  161.5048 H   0  0  0  0  0  0  0  0  0  0  0  0
  130.6683  140.3232  159.1503 H   0  0  0  0  0  0  0  0  0  0  0  0
  130.0804  138.0031  158.5724 H   0  0  0  0  0  0  0  0  0  0  0  0
  128.1357  135.2092  162.3097 H   0  0  0  0  0  0  0  0  0  0  0  0
  125.6852  134.9691  162.3082 H   0  0  0  0  0  0  0  0  0  0  0  0
  124.4099  135.3721  160.2408 H   0  0  0  0  0  0  0  0  0  0  0  0
  125.5842  136.0242  158.1772 H   0  0  0  0  0  0  0  0  0  0  0  0
  128.0339  136.2733  158.1809 H   0  0  0  0  0  0  0  0  0  0  0  0
  131.4540  130.3186  156.8979 H   0  0  0  0  0  0  0  0  0  0  0  0
  131.9040  128.9500  154.9040 H   0  0  0  0  0  0  0  0  0  0  0  0
  1  2  1  0
  2 28  2  0
  2  3  1  0
  3  4  2  0
  3 29  1  0
  4  5  1  0
  4 30  1  0
  5  6  1  0
  5 27  2  0
  6 25  1  0
  6  7  2  0
  7  8  1  0
  7 31  1  0
  8  9  1  0
  8 10  1  0
 10 11  1  0
 10 25  2  0
 11 12  1  0
 11 32  1  0
 12 13  1  0
 12 19  1  0
 12 33  1  0
 13 18  1  0
 13 14  2  0
 14 15  1  0
 14 34  1  0
 15 16  2  0
 15 35  1  0
 16 17  1  0
 16 36  1  0
 17 18  2  0
 17 37  1  0
 18 38  1  0
 19 24  1  0
 19 20  2  0
 20 21  1  0
 20 39  1  0
 21 22  2  0
 21 40  1  0
 22 23  1  0
 22 41  1  0
 23 24  2  0
 23 42  1  0
 24 43  1  0
 25 26  1  0
 27 28  1  0
 27 44  1  0
 28 45  1  0
M  CHG  1  25   1
M  END
>  <DOCK_score>  (1) 
-58.904903

>  <SMILES>  (1) 
Brc1ccc(-c2c[nH]c(NC(c3ccccc3)c3ccccc3)[nH+]2)cc1

$$$$
