CCc1ccc(-c2c[nH]c(Nc3cnccc3C3=CCN(c4cccc5cc[nH]c45)C3)[nH+]2)cc1
     RDKit          3D

 61 66  0  0  1  0  0  0  0  0999 V2000
  130.4230  127.9557  151.6983 C   0  0  0  0  0  0  0  0  0  0  0  0
  131.3619  129.1623  151.7606 C   0  0  0  0  0  0  0  0  0  0  0  0
  131.0281  129.9963  152.9708 C   0  0  0  0  0  0  0  0  0  0  0  0
  131.6522  129.7397  154.1780 C   0  0  0  0  0  0  0  0  0  0  0  0
  131.3541  130.5035  155.2881 C   0  0  0  0  0  0  0  0  0  0  0  0
  130.4138  131.5280  155.1937 C   0  0  0  0  0  0  0  0  0  0  0  0
  130.0849  132.3488  156.3847 C   0  0  0  0  0  0  0  0  0  0  0  0
  129.5815  131.8885  157.5570 C   0  0  0  0  0  0  0  0  0  0  0  0
  129.4283  132.9770  158.3798 N   0  0  0  0  0  0  0  0  0  0  0  0
  129.0871  132.9675  159.2878 H   0  0  0  0  0  0  0  0  0  0  0  0
  129.8429  134.0722  157.6858 C   0  0  0  0  0  0  0  0  0  0  0  0
  129.8503  135.3734  158.1609 N   0  0  0  0  0  0  0  0  0  0  0  0
  128.9044  135.7772  159.1045 C   0  0  0  0  0  0  0  0  0  0  0  0
  127.5484  135.7098  158.8181 C   0  0  0  0  0  0  0  0  0  0  0  0
  126.6516  136.0901  159.7063 N   0  0  0  0  0  0  0  0  0  0  0  0
  126.9924  136.5480  160.8963 C   0  0  0  0  0  0  0  0  0  0  0  0
  128.3168  136.6502  161.2673 C   0  0  0  0  0  0  0  0  0  0  0  0
  129.3086  136.2538  160.3636 C   0  0  0  0  0  0  0  0  0  0  0  0
  130.7393  136.3395  160.7200 C   0  0  0  0  0  0  0  0  0  0  0  0
  131.5857  135.3181  160.7538 C   0  0  0  0  0  0  0  0  0  0  0  0
  132.9518  135.8191  161.1628 C   0  0  0  0  0  0  0  0  0  0  0  0
  132.7189  137.1531  161.7646 N   0  0  0  0  0  0  0  0  0  0  0  0
  133.7780  138.0216  161.4831 C   0  0  0  0  0  0  0  0  0  0  0  0
  134.0985  138.3258  160.1713 C   0  0  0  0  0  0  0  0  0  0  0  0
  135.1474  139.1868  159.8826 C   0  0  0  0  0  0  0  0  0  0  0  0
  135.8825  139.7490  160.8880 C   0  0  0  0  0  0  0  0  0  0  0  0
  135.5786  139.4568  162.2207 C   0  0  0  0  0  0  0  0  0  0  0  0
  136.1432  139.8710  163.5072 C   0  0  0  0  0  0  0  0  0  0  0  0
  135.4187  139.2719  164.4657 C   0  0  0  0  0  0  0  0  0  0  0  0
  134.4455  138.4969  163.8977 N   0  0  0  0  0  0  0  0  0  0  0  0
  133.8025  137.9611  164.3882 H   0  0  0  0  0  0  0  0  0  0  0  0
  134.5146  138.5911  162.5242 C   0  0  0  0  0  0  0  0  0  0  0  0
  131.4734  137.6054  161.0977 C   0  0  0  0  0  0  0  0  0  0  0  0
  130.2401  133.6915  156.4961 N   0  0  0  0  0  0  0  0  0  0  0  0
  130.5868  134.2770  155.8047 H   0  0  0  0  0  0  0  0  0  0  0  0
  129.7842  131.7788  153.9757 C   0  0  0  0  0  0  0  0  0  0  0  0
  130.0945  131.0124  152.8708 C   0  0  0  0  0  0  0  0  0  0  0  0
  130.6643  127.3524  150.8232 H   0  0  0  0  0  0  0  0  0  0  0  0
  130.5444  127.3541  152.5991 H   0  0  0  0  0  0  0  0  0  0  0  0
  129.3915  128.3010  151.6283 H   0  0  0  0  0  0  0  0  0  0  0  0
  132.3931  128.8170  151.8307 H   0  0  0  0  0  0  0  0  0  0  0  0
  131.2403  129.7639  150.8599 H   0  0  0  0  0  0  0  0  0  0  0  0
  132.3772  128.9426  154.2512 H   0  0  0  0  0  0  0  0  0  0  0  0
  131.8450  130.3047  156.2294 H   0  0  0  0  0  0  0  0  0  0  0  0
  129.3458  130.8623  157.7972 H   0  0  0  0  0  0  0  0  0  0  0  0
  130.5127  136.0040  157.8378 H   0  0  0  0  0  0  0  0  0  0  0  0
  127.2238  135.3412  157.8563 H   0  0  0  0  0  0  0  0  0  0  0  0
  126.2215  136.8476  161.5908 H   0  0  0  0  0  0  0  0  0  0  0  0
  128.5845  137.0264  162.2435 H   0  0  0  0  0  0  0  0  0  0  0  0
  131.3381  134.2921  160.5251 H   0  0  0  0  0  0  0  0  0  0  0  0
  133.3964  135.1466  161.8963 H   0  0  0  0  0  0  0  0  0  0  0  0
  133.5986  135.9068  160.2896 H   0  0  0  0  0  0  0  0  0  0  0  0
  133.5268  137.8894  159.3657 H   0  0  0  0  0  0  0  0  0  0  0  0
  135.3848  139.4152  158.8541 H   0  0  0  0  0  0  0  0  0  0  0  0
  136.6973  140.4178  160.6532 H   0  0  0  0  0  0  0  0  0  0  0  0
  136.9765  140.5417  163.6567 H   0  0  0  0  0  0  0  0  0  0  0  0
  135.5862  139.3778  165.5273 H   0  0  0  0  0  0  0  0  0  0  0  0
  131.7091  138.1854  160.2055 H   0  0  0  0  0  0  0  0  0  0  0  0
  130.8721  138.1989  161.7866 H   0  0  0  0  0  0  0  0  0  0  0  0
  129.0546  132.5713  153.8970 H   0  0  0  0  0  0  0  0  0  0  0  0
  129.6071  131.2059  151.9267 H   0  0  0  0  0  0  0  0  0  0  0  0
  1  2  1  0
  1 38  1  0
  1 39  1  0
  1 40  1  0
  2  3  1  0
  2 41  1  0
  2 42  1  0
  3 37  2  0
  3  4  1  0
  4  5  2  0
  4 43  1  0
  5  6  1  0
  5 44  1  0
  6  7  1  0
  6 36  2  0
  7 34  1  0
  7  8  2  0
  8  9  1  0
  8 45  1  0
  9 10  1  0
  9 11  1  0
 11 12  1  0
 11 34  2  0
 12 13  1  0
 12 46  1  0
 13 18  1  0
 13 14  2  0
 14 15  1  0
 14 47  1  0
 15 16  2  0
 16 17  1  0
 16 48  1  0
 17 18  2  0
 17 49  1  0
 18 19  1  0
 19 33  1  0
 19 20  2  0
 20 21  1  0
 20 50  1  0
 21 22  1  0
 21 51  1  0
 21 52  1  0
 22 23  1  0
 22 33  1  0
 23 32  1  0
 23 24  2  0
 24 25  1  0
 24 53  1  0
 25 26  2  0
 25 54  1  0
 26 27  1  0
 26 55  1  0
 27 32  2  0
 27 28  1  0
 28 29  2  0
 28 56  1  0
 29 30  1  0
 29 57  1  0
 30 31  1  0
 30 32  1  0
 33 58  1  0
 33 59  1  0
 34 35  1  0
 36 37  1  0
 36 60  1  0
 37 61  1  0
M  CHG  1  34   1
M  END
>  <DOCK_score>  (1) 
-61.377697

>  <SMILES>  (1) 
CCc1ccc(-c2c[nH]c(Nc3cnccc3C3=CCN(c4cccc5cc[nH]c45)C3)[nH+]2)cc1

$$$$
