CCc1ccc(-c2c[nH]c(N[C@@H](CC(F)(F)F)c3c[nH]c4ccccc34)[nH+]2)cc1
     RDKit          3D

 51 54  0  0  1  0  0  0  0  0999 V2000
  137.1316  141.1299  162.4853 C   0  0  0  0  0  0  0  0  0  0  0  0
  137.4390  139.9835  161.5199 C   0  0  0  0  0  0  0  0  0  0  0  0
  136.2236  139.1030  161.3824 C   0  0  0  0  0  0  0  0  0  0  0  0
  135.2860  139.3713  160.4014 C   0  0  0  0  0  0  0  0  0  0  0  0
  134.1736  138.5655  160.2677 C   0  0  0  0  0  0  0  0  0  0  0  0
  133.9905  137.4861  161.1303 C   0  0  0  0  0  0  0  0  0  0  0  0
  132.7943  136.6195  160.9949 C   0  0  0  0  0  0  0  0  0  0  0  0
  132.1735  135.9535  161.9999 C   0  0  0  0  0  0  0  0  0  0  0  0
  131.1173  135.2784  161.4379 N   0  0  0  0  0  0  0  0  0  0  0  0
  130.4841  134.7113  161.9051 H   0  0  0  0  0  0  0  0  0  0  0  0
  131.1237  135.5517  160.1048 C   0  0  0  0  0  0  0  0  0  0  0  0
  130.2198  135.0630  159.1771 N   0  0  0  0  0  0  0  0  0  0  0  0
  129.1406  134.1699  159.6061 C   0  0  1  0  0  0  0  0  0  0  0  0
  128.7412  134.5146  160.5598 H   0  0  0  0  0  0  0  0  0  0  0  0
  128.0278  134.1738  158.5560 C   0  0  0  0  0  0  0  0  0  0  0  0
  127.1589  135.4199  158.7383 C   0  0  0  0  0  0  0  0  0  0  0  0
  127.9480  136.5649  158.5857 F   0  0  0  0  0  0  0  0  0  0  0  0
  126.1414  135.4234  157.7782 F   0  0  0  0  0  0  0  0  0  0  0  0
  126.5929  135.4107  160.0176 F   0  0  0  0  0  0  0  0  0  0  0  0
  129.6786  132.7710  159.7628 C   0  0  0  0  0  0  0  0  0  0  0  0
  129.6805  132.0375  160.8870 C   0  0  0  0  0  0  0  0  0  0  0  0
  130.2510  130.8172  160.6468 N   0  0  0  0  0  0  0  0  0  0  0  0
  130.3641  130.1153  161.3067 H   0  0  0  0  0  0  0  0  0  0  0  0
  130.6398  130.7337  159.3286 C   0  0  0  0  0  0  0  0  0  0  0  0
  131.2543  129.7406  158.5724 C   0  0  0  0  0  0  0  0  0  0  0  0
  131.5204  129.9621  157.2391 C   0  0  0  0  0  0  0  0  0  0  0  0
  131.1814  131.1678  156.6402 C   0  0  0  0  0  0  0  0  0  0  0  0
  130.5773  132.1567  157.3641 C   0  0  0  0  0  0  0  0  0  0  0  0
  130.2926  131.9511  158.7155 C   0  0  0  0  0  0  0  0  0  0  0  0
  132.1243  136.3574  159.8447 N   0  0  0  0  0  0  0  0  0  0  0  0
  132.3506  136.7087  158.9694 H   0  0  0  0  0  0  0  0  0  0  0  0
  134.9359  137.2238  162.1204 C   0  0  0  0  0  0  0  0  0  0  0  0
  136.0471  138.0331  162.2413 C   0  0  0  0  0  0  0  0  0  0  0  0
  136.8661  140.7222  163.4607 H   0  0  0  0  0  0  0  0  0  0  0  0
  138.0106  141.7668  162.5848 H   0  0  0  0  0  0  0  0  0  0  0  0
  136.2991  141.7175  162.0983 H   0  0  0  0  0  0  0  0  0  0  0  0
  137.7045  140.3912  160.5445 H   0  0  0  0  0  0  0  0  0  0  0  0
  138.2715  139.3960  161.9069 H   0  0  0  0  0  0  0  0  0  0  0  0
  135.4267  140.2106  159.7363 H   0  0  0  0  0  0  0  0  0  0  0  0
  133.4445  138.7731  159.4985 H   0  0  0  0  0  0  0  0  0  0  0  0
  132.4555  135.9538  163.0424 H   0  0  0  0  0  0  0  0  0  0  0  0
  130.3011  135.3117  158.2431 H   0  0  0  0  0  0  0  0  0  0  0  0
  128.4688  134.1808  157.5592 H   0  0  0  0  0  0  0  0  0  0  0  0
  127.4130  133.2816  158.6750 H   0  0  0  0  0  0  0  0  0  0  0  0
  129.2897  132.3623  161.8399 H   0  0  0  0  0  0  0  0  0  0  0  0
  131.5222  128.7994  159.0292 H   0  0  0  0  0  0  0  0  0  0  0  0
  131.9978  129.1901  156.6539 H   0  0  0  0  0  0  0  0  0  0  0  0
  131.3972  131.3256  155.5938 H   0  0  0  0  0  0  0  0  0  0  0  0
  130.3162  133.0919  156.8913 H   0  0  0  0  0  0  0  0  0  0  0  0
  134.7989  136.3890  162.7917 H   0  0  0  0  0  0  0  0  0  0  0  0
  136.7802  137.8310  163.0083 H   0  0  0  0  0  0  0  0  0  0  0  0
  1  2  1  0
  1 34  1  0
  1 35  1  0
  1 36  1  0
  2  3  1  0
  2 37  1  0
  2 38  1  0
  3 33  2  0
  3  4  1  0
  4  5  2  0
  4 39  1  0
  5  6  1  0
  5 40  1  0
  6  7  1  0
  6 32  2  0
  7 30  1  0
  7  8  2  0
  8  9  1  0
  8 41  1  0
  9 10  1  0
  9 11  1  0
 11 12  1  0
 11 30  2  0
 12 13  1  0
 12 42  1  0
 13 14  1  1
 13 15  1  0
 13 20  1  0
 15 16  1  0
 15 43  1  0
 15 44  1  0
 16 17  1  0
 16 18  1  0
 16 19  1  0
 20 29  1  0
 20 21  2  0
 21 22  1  0
 21 45  1  0
 22 23  1  0
 22 24  1  0
 24 29  2  0
 24 25  1  0
 25 26  2  0
 25 46  1  0
 26 27  1  0
 26 47  1  0
 27 28  2  0
 27 48  1  0
 28 29  1  0
 28 49  1  0
 30 31  1  0
 32 33  1  0
 32 50  1  0
 33 51  1  0
M  CHG  1  30   1
M  END
>  <DOCK_score>  (1) 
-56.462364

>  <SMILES>  (1) 
CCc1ccc(-c2c[nH]c(N[C@@H](CC(F)(F)F)c3c[nH]c4ccccc34)[nH+]2)cc1

$$$$
