Nc1ccc(Nc2ccc(Nc3[nH]cc(-c4cccnc4)[nH+]3)cc2)cc1
     RDKit          3D

 45 48  0  0  1  0  0  0  0  0999 V2000
  127.8500  139.2888  167.2822 N   0  0  0  0  0  0  0  0  0  0  0  0
  127.4474  138.7342  166.0615 C   0  0  0  0  0  0  0  0  0  0  0  0
  127.8379  137.4455  165.7220 C   0  0  0  0  0  0  0  0  0  0  0  0
  127.4405  136.8981  164.5184 C   0  0  0  0  0  0  0  0  0  0  0  0
  126.6502  137.6365  163.6470 C   0  0  0  0  0  0  0  0  0  0  0  0
  126.2472  137.0817  162.4265 N   0  0  0  0  0  0  0  0  0  0  0  0
  127.2064  136.6761  161.4916 C   0  0  0  0  0  0  0  0  0  0  0  0
  126.9302  135.6275  160.6235 C   0  0  0  0  0  0  0  0  0  0  0  0
  127.8785  135.2240  159.7048 C   0  0  0  0  0  0  0  0  0  0  0  0
  129.1043  135.8736  159.6412 C   0  0  0  0  0  0  0  0  0  0  0  0
  130.0641  135.4677  158.7058 N   0  0  0  0  0  0  0  0  0  0  0  0
  130.1167  134.1456  158.2967 C   0  0  0  0  0  0  0  0  0  0  0  0
  129.7564  133.0685  159.0470 N   0  0  0  0  0  0  0  0  0  0  0  0
  129.4200  133.0885  159.9566 H   0  0  0  0  0  0  0  0  0  0  0  0
  129.9577  131.9481  158.2786 C   0  0  0  0  0  0  0  0  0  0  0  0
  130.4347  132.3719  157.0818 C   0  0  0  0  0  0  0  0  0  0  0  0
  130.7982  131.5085  155.9317 C   0  0  0  0  0  0  0  0  0  0  0  0
  130.6717  131.9799  154.6217 C   0  0  0  0  0  0  0  0  0  0  0  0
  131.0295  131.1372  153.5836 C   0  0  0  0  0  0  0  0  0  0  0  0
  131.4861  129.8639  153.8723 C   0  0  0  0  0  0  0  0  0  0  0  0
  131.5896  129.4449  155.1187 N   0  0  0  0  0  0  0  0  0  0  0  0
  131.2660  130.2125  156.1393 C   0  0  0  0  0  0  0  0  0  0  0  0
  130.5161  133.7252  157.1210 N   0  0  0  0  0  0  0  0  0  0  0  0
  130.8231  134.2915  156.3957 H   0  0  0  0  0  0  0  0  0  0  0  0
  129.3787  136.9255  160.5056 C   0  0  0  0  0  0  0  0  0  0  0  0
  128.4325  137.3257  161.4280 C   0  0  0  0  0  0  0  0  0  0  0  0
  126.2645  138.9275  163.9841 C   0  0  0  0  0  0  0  0  0  0  0  0
  126.6573  139.4726  165.1904 C   0  0  0  0  0  0  0  0  0  0  0  0
  128.4017  138.7730  167.8907 H   0  0  0  0  0  0  0  0  0  0  0  0
  127.5773  140.1889  167.5192 H   0  0  0  0  0  0  0  0  0  0  0  0
  128.4527  136.8714  166.3996 H   0  0  0  0  0  0  0  0  0  0  0  0
  127.7445  135.8961  164.2542 H   0  0  0  0  0  0  0  0  0  0  0  0
  125.3033  136.9785  162.2288 H   0  0  0  0  0  0  0  0  0  0  0  0
  125.9752  135.1252  160.6699 H   0  0  0  0  0  0  0  0  0  0  0  0
  127.6653  134.4060  159.0325 H   0  0  0  0  0  0  0  0  0  0  0  0
  130.6923  136.1126  158.3444 H   0  0  0  0  0  0  0  0  0  0  0  0
  129.7715  130.9252  158.5712 H   0  0  0  0  0  0  0  0  0  0  0  0
  130.3082  132.9776  154.4249 H   0  0  0  0  0  0  0  0  0  0  0  0
  130.9490  131.4689  152.5589 H   0  0  0  0  0  0  0  0  0  0  0  0
  131.7624  129.2025  153.0646 H   0  0  0  0  0  0  0  0  0  0  0  0
  131.3645  129.8339  157.1460 H   0  0  0  0  0  0  0  0  0  0  0  0
  130.3320  137.4306  160.4562 H   0  0  0  0  0  0  0  0  0  0  0  0
  128.6459  138.1437  162.1002 H   0  0  0  0  0  0  0  0  0  0  0  0
  125.6540  139.5036  163.3045 H   0  0  0  0  0  0  0  0  0  0  0  0
  126.3537  140.4749  165.4545 H   0  0  0  0  0  0  0  0  0  0  0  0
  1  2  1  0
  1 29  1  0
  1 30  1  0
  2 28  2  0
  2  3  1  0
  3  4  2  0
  3 31  1  0
  4  5  1  0
  4 32  1  0
  5  6  1  0
  5 27  2  0
  6  7  1  0
  6 33  1  0
  7 26  1  0
  7  8  2  0
  8  9  1  0
  8 34  1  0
  9 10  2  0
  9 35  1  0
 10 11  1  0
 10 25  1  0
 11 36  1  0
 12 11  1  0
 12 23  2  0
 12 13  1  0
 13 14  1  0
 13 15  1  0
 15 16  2  0
 15 37  1  0
 16 17  1  0
 16 23  1  0
 17 22  1  0
 17 18  2  0
 18 19  1  0
 18 38  1  0
 19 20  2  0
 19 39  1  0
 20 21  1  0
 20 40  1  0
 21 22  2  0
 22 41  1  0
 23 24  1  0
 25 26  2  0
 25 42  1  0
 26 43  1  0
 27 28  1  0
 27 44  1  0
 28 45  1  0
M  CHG  1  23   1
M  END
>  <DOCK_score>  (1) 
-51.864105

>  <SMILES>  (1) 
Nc1ccc(Nc2ccc(Nc3[nH]cc(-c4cccnc4)[nH+]3)cc2)cc1

$$$$
