NC(=O)[C@@H](c1ccccc1)N1CC[NH+](C2=CCN(C(c3ccccc3)c3ccccc3)CC2)CC1
     RDKit          3D

 70 74  0  0  1  0  0  0  0  0999 V2000
  129.5114  140.4785  162.5909 N   0  0  0  0  0  0  0  0  0  0  0  0
  130.4590  141.1124  161.8719 C   0  0  0  0  0  0  0  0  0  0  0  0
  130.2705  142.2467  161.4866 O   0  0  0  0  0  0  0  0  0  0  0  0
  131.7528  140.4113  161.5468 C   0  0  1  0  0  0  0  0  0  0  0  0
  132.1387  140.7828  160.5976 H   0  0  0  0  0  0  0  0  0  0  0  0
  132.7576  140.6801  162.6372 C   0  0  0  0  0  0  0  0  0  0  0  0
  134.1078  140.7064  162.3416 C   0  0  0  0  0  0  0  0  0  0  0  0
  135.0293  140.9578  163.3410 C   0  0  0  0  0  0  0  0  0  0  0  0
  134.6013  141.1722  164.6378 C   0  0  0  0  0  0  0  0  0  0  0  0
  133.2515  141.1407  164.9343 C   0  0  0  0  0  0  0  0  0  0  0  0
  132.3297  140.8945  163.9340 C   0  0  0  0  0  0  0  0  0  0  0  0
  131.5143  138.9652  161.4463 N   0  0  0  0  0  0  0  0  0  0  0  0
  130.8589  138.6266  160.1751 C   0  0  0  0  0  0  0  0  0  0  0  0
  130.5751  137.1234  160.1356 C   0  0  0  0  0  0  0  0  0  0  0  0
  131.8366  136.3831  160.2684 N   0  0  0  0  0  0  0  0  0  0  0  0
  132.4571  136.6380  159.5145 H   0  0  0  0  0  0  0  0  0  0  0  0
  131.5788  135.0101  160.2150 C   0  0  0  0  0  0  0  0  0  0  0  0
  130.7946  134.4907  161.1098 C   0  0  0  0  0  0  0  0  0  0  0  0
  130.4519  133.0296  161.1570 C   0  0  0  0  0  0  0  0  0  0  0  0
  130.7729  132.3899  159.8747 N   0  0  0  0  0  0  0  0  0  0  0  0
  129.8180  132.7907  158.8328 C   0  0  0  0  0  0  0  0  0  0  0  0
  130.1788  132.1159  157.5344 C   0  0  0  0  0  0  0  0  0  0  0  0
  129.8941  132.7347  156.3316 C   0  0  0  0  0  0  0  0  0  0  0  0
  130.2253  132.1158  155.1406 C   0  0  0  0  0  0  0  0  0  0  0  0
  130.8412  130.8783  155.1526 C   0  0  0  0  0  0  0  0  0  0  0  0
  131.1267  130.2600  156.3556 C   0  0  0  0  0  0  0  0  0  0  0  0
  130.7958  130.8790  157.5465 C   0  0  0  0  0  0  0  0  0  0  0  0
  128.4267  132.3813  159.2422 C   0  0  0  0  0  0  0  0  0  0  0  0
  127.3375  133.1243  158.8272 C   0  0  0  0  0  0  0  0  0  0  0  0
  126.0608  132.7466  159.1994 C   0  0  0  0  0  0  0  0  0  0  0  0
  125.8743  131.6305  159.9935 C   0  0  0  0  0  0  0  0  0  0  0  0
  126.9640  130.8906  160.4129 C   0  0  0  0  0  0  0  0  0  0  0  0
  128.2402  131.2661  160.0375 C   0  0  0  0  0  0  0  0  0  0  0  0
  132.1536  132.7121  159.4772 C   0  0  0  0  0  0  0  0  0  0  0  0
  132.2221  134.2001  159.1244 C   0  0  0  0  0  0  0  0  0  0  0  0
  132.4671  136.7129  161.5533 C   0  0  0  0  0  0  0  0  0  0  0  0
  132.7669  138.2126  161.6046 C   0  0  0  0  0  0  0  0  0  0  0  0
  129.6621  139.5712  162.8988 H   0  0  0  0  0  0  0  0  0  0  0  0
  128.6786  140.9298  162.8001 H   0  0  0  0  0  0  0  0  0  0  0  0
  134.4424  140.5346  161.3293 H   0  0  0  0  0  0  0  0  0  0  0  0
  136.0839  140.9821  163.1095 H   0  0  0  0  0  0  0  0  0  0  0  0
  135.3215  141.3642  165.4194 H   0  0  0  0  0  0  0  0  0  0  0  0
  132.9171  141.3079  165.9475 H   0  0  0  0  0  0  0  0  0  0  0  0
  131.2751  140.8695  164.1658 H   0  0  0  0  0  0  0  0  0  0  0  0
  131.5134  138.8950  159.3457 H   0  0  0  0  0  0  0  0  0  0  0  0
  129.9214  139.1762  160.0916 H   0  0  0  0  0  0  0  0  0  0  0  0
  130.1018  136.8679  159.1875 H   0  0  0  0  0  0  0  0  0  0  0  0
  129.9097  136.8577  160.9570 H   0  0  0  0  0  0  0  0  0  0  0  0
  130.3667  135.1423  161.8572 H   0  0  0  0  0  0  0  0  0  0  0  0
  129.3874  132.9148  161.3611 H   0  0  0  0  0  0  0  0  0  0  0  0
  131.0232  132.5508  161.9522 H   0  0  0  0  0  0  0  0  0  0  0  0
  129.8551  133.8724  158.7027 H   0  0  0  0  0  0  0  0  0  0  0  0
  129.4169  133.7035  156.3222 H   0  0  0  0  0  0  0  0  0  0  0  0
  130.0026  132.5990  154.2008 H   0  0  0  0  0  0  0  0  0  0  0  0
  131.0996  130.3947  154.2223 H   0  0  0  0  0  0  0  0  0  0  0  0
  131.6079  129.2932  156.3649 H   0  0  0  0  0  0  0  0  0  0  0  0
  131.0187  130.3958  158.4863 H   0  0  0  0  0  0  0  0  0  0  0  0
  127.4835  133.9982  158.2095 H   0  0  0  0  0  0  0  0  0  0  0  0
  125.2095  133.3249  158.8721 H   0  0  0  0  0  0  0  0  0  0  0  0
  124.8770  131.3369  160.2865 H   0  0  0  0  0  0  0  0  0  0  0  0
  126.8182  130.0188  161.0336 H   0  0  0  0  0  0  0  0  0  0  0  0
  129.0916  130.6880  160.3651 H   0  0  0  0  0  0  0  0  0  0  0  0
  132.8316  132.5001  160.3040 H   0  0  0  0  0  0  0  0  0  0  0  0
  132.4344  132.1136  158.6106 H   0  0  0  0  0  0  0  0  0  0  0  0
  133.2646  134.4997  159.0172 H   0  0  0  0  0  0  0  0  0  0  0  0
  131.6962  134.3748  158.1857 H   0  0  0  0  0  0  0  0  0  0  0  0
  131.7920  136.4492  162.3676 H   0  0  0  0  0  0  0  0  0  0  0  0
  133.3966  136.1529  161.6563 H   0  0  0  0  0  0  0  0  0  0  0  0
  133.4526  138.4742  160.7989 H   0  0  0  0  0  0  0  0  0  0  0  0
  133.2210  138.4602  162.5640 H   0  0  0  0  0  0  0  0  0  0  0  0
  1  2  1  0
  1 38  1  0
  1 39  1  0
  2  3  2  0
  2  4  1  0
  4  5  1  6
  4  6  1  0
  4 12  1  0
  6 11  1  0
  6  7  2  0
  7  8  1  0
  7 40  1  0
  8  9  2  0
  8 41  1  0
  9 10  1  0
  9 42  1  0
 10 11  2  0
 10 43  1  0
 11 44  1  0
 12 37  1  0
 12 13  1  0
 13 14  1  0
 13 45  1  0
 13 46  1  0
 14 15  1  0
 14 47  1  0
 14 48  1  0
 15 16  1  0
 15 17  1  0
 15 36  1  0
 17 35  1  0
 17 18  2  0
 18 19  1  0
 18 49  1  0
 19 20  1  0
 19 50  1  0
 19 51  1  0
 20 21  1  0
 20 34  1  0
 21 22  1  0
 21 28  1  0
 21 52  1  0
 22 27  1  0
 22 23  2  0
 23 24  1  0
 23 53  1  0
 24 25  2  0
 24 54  1  0
 25 26  1  0
 25 55  1  0
 26 27  2  0
 26 56  1  0
 27 57  1  0
 28 33  1  0
 28 29  2  0
 29 30  1  0
 29 58  1  0
 30 31  2  0
 30 59  1  0
 31 32  1  0
 31 60  1  0
 32 33  2  0
 32 61  1  0
 33 62  1  0
 34 35  1  0
 34 63  1  0
 34 64  1  0
 35 65  1  0
 35 66  1  0
 36 37  1  0
 36 67  1  0
 36 68  1  0
 37 69  1  0
 37 70  1  0
M  CHG  1  15   1
M  END
>  <DOCK_score>  (1) 
-55.950939

>  <SMILES>  (1) 
NC(=O)[C@@H](c1ccccc1)N1CC[NH+](C2=CCN(C(c3ccccc3)c3ccccc3)CC2)CC1

$$$$
