C=CCC[C@H](O)c1cccc(Nc2ccc(CNC3=[NH+]CCN3CC)cc2)c1
     RDKit          3D

 59 61  0  0  1  0  0  0  0  0999 V2000
  132.5475  138.4157  161.1190 C   0  0  0  0  0  0  0  0  0  0  0  0
  132.9271  137.6976  162.1468 C   0  0  0  0  0  0  0  0  0  0  0  0
  132.0058  137.5253  163.3269 C   0  0  0  0  0  0  0  0  0  0  0  0
  131.7002  136.0389  163.5225 C   0  0  0  0  0  0  0  0  0  0  0  0
  130.7649  135.8640  164.7205 C   0  0  2  0  0  0  0  0  0  0  0  0
  131.2449  136.2571  165.6167 H   0  0  0  0  0  0  0  0  0  0  0  0
  130.4794  134.4757  164.9032 O   0  0  0  0  0  0  0  0  0  0  0  0
  129.4811  136.6120  164.4691 C   0  0  0  0  0  0  0  0  0  0  0  0
  129.0915  137.6237  165.3281 C   0  0  0  0  0  0  0  0  0  0  0  0
  127.9172  138.3165  165.0979 C   0  0  0  0  0  0  0  0  0  0  0  0
  127.1234  137.9926  164.0152 C   0  0  0  0  0  0  0  0  0  0  0  0
  127.5086  136.9733  163.1536 C   0  0  0  0  0  0  0  0  0  0  0  0
  126.7081  136.6429  162.0572 N   0  0  0  0  0  0  0  0  0  0  0  0
  127.2916  136.1333  160.8946 C   0  0  0  0  0  0  0  0  0  0  0  0
  126.9363  134.8727  160.4321 C   0  0  0  0  0  0  0  0  0  0  0  0
  127.5106  134.3746  159.2791 C   0  0  0  0  0  0  0  0  0  0  0  0
  128.4472  135.1245  158.5916 C   0  0  0  0  0  0  0  0  0  0  0  0
  129.0766  134.5749  157.3374 C   0  0  0  0  0  0  0  0  0  0  0  0
  129.4652  133.1796  157.5571 N   0  0  0  0  0  0  0  0  0  0  0  0
  130.0633  132.4652  156.5461 C   0  0  0  0  0  0  0  0  0  0  0  0
  130.3038  132.9675  155.3791 N   0  0  0  0  0  0  0  0  0  0  0  0
  130.0908  133.8748  155.1100 H   0  0  0  0  0  0  0  0  0  0  0  0
  130.9494  131.9644  154.5210 C   0  0  0  0  0  0  0  0  0  0  0  0
  131.0490  130.7146  155.4182 C   0  0  0  0  0  0  0  0  0  0  0  0
  130.4495  131.1605  156.6870 N   0  0  0  0  0  0  0  0  0  0  0  0
  130.2934  130.3459  157.8944 C   0  0  0  0  0  0  0  0  0  0  0  0
  131.5357  130.4957  158.7749 C   0  0  0  0  0  0  0  0  0  0  0  0
  128.8079  136.3776  159.0524 C   0  0  0  0  0  0  0  0  0  0  0  0
  128.2332  136.8843  160.2012 C   0  0  0  0  0  0  0  0  0  0  0  0
  128.6923  136.2830  163.3847 C   0  0  0  0  0  0  0  0  0  0  0  0
  131.5746  138.8842  161.1174 H   0  0  0  0  0  0  0  0  0  0  0  0
  133.2077  138.5392  160.2732 H   0  0  0  0  0  0  0  0  0  0  0  0
  133.9019  137.2328  162.1503 H   0  0  0  0  0  0  0  0  0  0  0  0
  132.4859  137.9184  164.2231 H   0  0  0  0  0  0  0  0  0  0  0  0
  131.0774  138.0664  163.1451 H   0  0  0  0  0  0  0  0  0  0  0  0
  131.2201  135.6458  162.6263 H   0  0  0  0  0  0  0  0  0  0  0  0
  132.6288  135.4978  163.7043 H   0  0  0  0  0  0  0  0  0  0  0  0
  130.0506  134.0591  164.1432 H   0  0  0  0  0  0  0  0  0  0  0  0
  129.7080  137.8759  166.1783 H   0  0  0  0  0  0  0  0  0  0  0  0
  127.6181  139.1088  165.7681 H   0  0  0  0  0  0  0  0  0  0  0  0
  126.2038  138.5309  163.8386 H   0  0  0  0  0  0  0  0  0  0  0  0
  125.7475  136.7680  162.1028 H   0  0  0  0  0  0  0  0  0  0  0  0
  126.2086  134.2846  160.9713 H   0  0  0  0  0  0  0  0  0  0  0  0
  127.2315  133.3963  158.9167 H   0  0  0  0  0  0  0  0  0  0  0  0
  128.3599  134.6277  156.5179 H   0  0  0  0  0  0  0  0  0  0  0  0
  129.9595  135.1627  157.0864 H   0  0  0  0  0  0  0  0  0  0  0  0
  129.3004  132.7597  158.4159 H   0  0  0  0  0  0  0  0  0  0  0  0
  131.9421  132.2977  154.2186 H   0  0  0  0  0  0  0  0  0  0  0  0
  130.3335  131.7583  153.6457 H   0  0  0  0  0  0  0  0  0  0  0  0
  132.0905  130.4283  155.5645 H   0  0  0  0  0  0  0  0  0  0  0  0
  130.4800  129.8873  154.9939 H   0  0  0  0  0  0  0  0  0  0  0  0
  129.4146  130.6790  158.4465 H   0  0  0  0  0  0  0  0  0  0  0  0
  130.1712  129.2998  157.6137 H   0  0  0  0  0  0  0  0  0  0  0  0
  131.6580  131.5418  159.0556 H   0  0  0  0  0  0  0  0  0  0  0  0
  131.4197  129.8895  159.6733 H   0  0  0  0  0  0  0  0  0  0  0  0
  132.4147  130.1626  158.2228 H   0  0  0  0  0  0  0  0  0  0  0  0
  129.5397  136.9606  158.5130 H   0  0  0  0  0  0  0  0  0  0  0  0
  128.5153  137.8628  160.5606 H   0  0  0  0  0  0  0  0  0  0  0  0
  128.9950  135.4902  162.7167 H   0  0  0  0  0  0  0  0  0  0  0  0
  1  2  2  0
  1 31  1  0
  1 32  1  0
  2  3  1  0
  2 33  1  0
  3  4  1  0
  3 34  1  0
  3 35  1  0
  4  5  1  0
  4 36  1  0
  4 37  1  0
  5  6  1  1
  5  7  1  0
  5  8  1  0
  7 38  1  0
  8 30  2  0
  8  9  1  0
  9 10  2  0
  9 39  1  0
 10 11  1  0
 10 40  1  0
 11 12  2  0
 11 41  1  0
 12 13  1  0
 12 30  1  0
 13 14  1  0
 13 42  1  0
 14 29  1  0
 14 15  2  0
 15 16  1  0
 15 43  1  0
 16 17  2  0
 16 44  1  0
 17 18  1  0
 17 28  1  0
 18 19  1  0
 18 45  1  0
 18 46  1  0
 19 47  1  0
 20 19  1  0
 20 25  1  0
 20 21  2  0
 21 22  1  0
 21 23  1  0
 23 24  1  0
 23 48  1  0
 23 49  1  0
 24 25  1  0
 24 50  1  0
 24 51  1  0
 25 26  1  0
 26 27  1  0
 26 52  1  0
 26 53  1  0
 27 54  1  0
 27 55  1  0
 27 56  1  0
 28 29  2  0
 28 57  1  0
 29 58  1  0
 30 59  1  0
M  CHG  1  21   1
M  END
>  <DOCK_score>  (1) 
-42.544872

>  <SMILES>  (1) 
C=CCC[C@H](O)c1cccc(Nc2ccc(CNC3=[NH+]CCN3CC)cc2)c1

$$$$
