Cc1ccccc1CC=C[C@@H](Cc1cccc(Cl)c1)Nc1[nH]cc(-c2ccc(N)cc2)[nH+]1
     RDKit          3D

 60 63  0  0  1  0  0  0  0  0999 V2000
  133.0965  140.7702  162.3830 C   0  0  0  0  0  0  0  0  0  0  0  0
  134.0688  140.2144  161.3746 C   0  0  0  0  0  0  0  0  0  0  0  0
  134.6953  141.0611  160.4790 C   0  0  0  0  0  0  0  0  0  0  0  0
  135.5874  140.5514  159.5544 C   0  0  0  0  0  0  0  0  0  0  0  0
  135.8529  139.1949  159.5250 C   0  0  0  0  0  0  0  0  0  0  0  0
  135.2309  138.3494  160.4242 C   0  0  0  0  0  0  0  0  0  0  0  0
  134.3345  138.8584  161.3455 C   0  0  0  0  0  0  0  0  0  0  0  0
  133.6521  137.9357  162.3221 C   0  0  0  0  0  0  0  0  0  0  0  0
  132.3603  137.4393  161.7253 C   0  0  0  0  0  0  0  0  0  0  0  0
  131.8990  136.2578  162.0529 C   0  0  0  0  0  0  0  0  0  0  0  0
  130.6072  135.7614  161.4561 C   0  0  1  0  0  0  0  0  0  0  0  0
  130.3864  134.7668  161.8438 H   0  0  0  0  0  0  0  0  0  0  0  0
  129.4724  136.7176  161.8290 C   0  0  0  0  0  0  0  0  0  0  0  0
  128.1500  136.0110  161.6777 C   0  0  0  0  0  0  0  0  0  0  0  0
  127.6089  135.3208  162.7465 C   0  0  0  0  0  0  0  0  0  0  0  0
  126.3961  134.6725  162.6086 C   0  0  0  0  0  0  0  0  0  0  0  0
  125.7230  134.7142  161.4018 C   0  0  0  0  0  0  0  0  0  0  0  0
  126.2636  135.4051  160.3323 C   0  0  0  0  0  0  0  0  0  0  0  0
  125.4187  135.4585  158.8167 Cl  0  0  0  0  0  0  0  0  0  0  0  0
  127.4756  136.0579  160.4724 C   0  0  0  0  0  0  0  0  0  0  0  0
  130.7346  135.6999  159.9979 N   0  0  0  0  0  0  0  0  0  0  0  0
  130.5742  134.4928  159.3393 C   0  0  0  0  0  0  0  0  0  0  0  0
  130.2912  133.2997  159.9291 N   0  0  0  0  0  0  0  0  0  0  0  0
  130.1672  133.1429  160.8783 H   0  0  0  0  0  0  0  0  0  0  0  0
  130.2137  132.3573  158.9311 C   0  0  0  0  0  0  0  0  0  0  0  0
  130.4515  133.0020  157.7623 C   0  0  0  0  0  0  0  0  0  0  0  0
  130.4696  132.3853  156.4131 C   0  0  0  0  0  0  0  0  0  0  0  0
  130.0998  133.1354  155.2977 C   0  0  0  0  0  0  0  0  0  0  0  0
  130.1230  132.5617  154.0440 C   0  0  0  0  0  0  0  0  0  0  0  0
  130.5034  131.2335  153.8932 C   0  0  0  0  0  0  0  0  0  0  0  0
  130.5209  130.6529  152.6227 N   0  0  0  0  0  0  0  0  0  0  0  0
  130.8670  130.4821  155.0046 C   0  0  0  0  0  0  0  0  0  0  0  0
  130.8508  131.0533  156.2595 C   0  0  0  0  0  0  0  0  0  0  0  0
  130.6640  134.3119  158.0442 N   0  0  0  0  0  0  0  0  0  0  0  0
  130.8543  135.0038  157.3916 H   0  0  0  0  0  0  0  0  0  0  0  0
  133.6319  141.0408  163.2931 H   0  0  0  0  0  0  0  0  0  0  0  0
  132.6110  141.6546  161.9705 H   0  0  0  0  0  0  0  0  0  0  0  0
  132.3433  140.0171  162.6147 H   0  0  0  0  0  0  0  0  0  0  0  0
  134.4879  142.1207  160.5020 H   0  0  0  0  0  0  0  0  0  0  0  0
  136.0768  141.2127  158.8548 H   0  0  0  0  0  0  0  0  0  0  0  0
  136.5497  138.7966  158.8024 H   0  0  0  0  0  0  0  0  0  0  0  0
  135.4420  137.2903  160.4043 H   0  0  0  0  0  0  0  0  0  0  0  0
  133.4421  138.4751  163.2457 H   0  0  0  0  0  0  0  0  0  0  0  0
  134.3027  137.0878  162.5363 H   0  0  0  0  0  0  0  0  0  0  0  0
  131.8148  138.0577  161.0278 H   0  0  0  0  0  0  0  0  0  0  0  0
  132.4443  135.6394  162.7504 H   0  0  0  0  0  0  0  0  0  0  0  0
  129.5952  137.0415  162.8625 H   0  0  0  0  0  0  0  0  0  0  0  0
  129.4979  137.5858  161.1705 H   0  0  0  0  0  0  0  0  0  0  0  0
  128.1344  135.2879  163.6895 H   0  0  0  0  0  0  0  0  0  0  0  0
  125.9738  134.1335  163.4439 H   0  0  0  0  0  0  0  0  0  0  0  0
  124.7756  134.2074  161.2940 H   0  0  0  0  0  0  0  0  0  0  0  0
  127.8965  136.6006  159.6388 H   0  0  0  0  0  0  0  0  0  0  0  0
  130.9316  136.5049  159.4940 H   0  0  0  0  0  0  0  0  0  0  0  0
  130.0038  131.3051  159.0545 H   0  0  0  0  0  0  0  0  0  0  0  0
  129.7996  134.1661  155.4150 H   0  0  0  0  0  0  0  0  0  0  0  0
  129.8405  133.1436  153.1791 H   0  0  0  0  0  0  0  0  0  0  0  0
  130.7867  129.7262  152.5166 H   0  0  0  0  0  0  0  0  0  0  0  0
  130.2673  131.1767  151.8466 H   0  0  0  0  0  0  0  0  0  0  0  0
  131.1620  129.4501  154.8851 H   0  0  0  0  0  0  0  0  0  0  0  0
  131.1337  130.4692  157.1227 H   0  0  0  0  0  0  0  0  0  0  0  0
  1  2  1  0
  1 36  1  0
  1 37  1  0
  1 38  1  0
  2  7  2  0
  2  3  1  0
  3  4  2  0
  3 39  1  0
  4  5  1  0
  4 40  1  0
  5  6  2  0
  5 41  1  0
  6  7  1  0
  6 42  1  0
  7  8  1  0
  8  9  1  0
  8 43  1  0
  8 44  1  0
  9 10  2  0
  9 45  1  0
 10 11  1  0
 10 46  1  0
 11 12  1  1
 11 13  1  0
 11 21  1  0
 13 14  1  0
 13 47  1  0
 13 48  1  0
 14 20  1  0
 14 15  2  0
 15 16  1  0
 15 49  1  0
 16 17  2  0
 16 50  1  0
 17 18  1  0
 17 51  1  0
 18 19  1  0
 18 20  2  0
 20 52  1  0
 21 53  1  0
 22 21  1  0
 22 34  2  0
 22 23  1  0
 23 24  1  0
 23 25  1  0
 25 26  2  0
 25 54  1  0
 26 27  1  0
 26 34  1  0
 27 33  1  0
 27 28  2  0
 28 29  1  0
 28 55  1  0
 29 30  2  0
 29 56  1  0
 30 31  1  0
 30 32  1  0
 31 57  1  0
 31 58  1  0
 32 33  2  0
 32 59  1  0
 33 60  1  0
 34 35  1  0
M  CHG  1  34   1
M  END
>  <DOCK_score>  (1) 
-55.994316

>  <SMILES>  (1) 
Cc1ccccc1CC=C[C@@H](Cc1cccc(Cl)c1)Nc1[nH]cc(-c2ccc(N)cc2)[nH+]1

$$$$
