CCCC=CC[C@H](Nc1[nH]cc(-c2ccc(CC)cc2)[nH+]1)c1ccccc1
     RDKit          3D

 57 59  0  0  1  0  0  0  0  0999 V2000
  133.7603  139.5126  162.0020 C   0  0  0  0  0  0  0  0  0  0  0  0
  134.3218  139.2914  160.5961 C   0  0  0  0  0  0  0  0  0  0  0  0
  133.9263  137.8982  160.1025 C   0  0  0  0  0  0  0  0  0  0  0  0
  132.4240  137.7853  160.0669 C   0  0  0  0  0  0  0  0  0  0  0  0
  131.8183  136.8747  160.7878 C   0  0  0  0  0  0  0  0  0  0  0  0
  130.3159  136.7620  160.7522 C   0  0  0  0  0  0  0  0  0  0  0  0
  129.9207  135.3688  160.2587 C   0  0  2  0  0  0  0  0  0  0  0  0
  130.3257  134.6153  160.9343 H   0  0  0  0  0  0  0  0  0  0  0  0
  130.4582  135.1569  158.9124 N   0  0  0  0  0  0  0  0  0  0  0  0
  130.2282  133.9602  158.2556 C   0  0  0  0  0  0  0  0  0  0  0  0
  129.5257  132.9056  158.7522 N   0  0  0  0  0  0  0  0  0  0  0  0
  129.1000  132.8576  159.6225 H   0  0  0  0  0  0  0  0  0  0  0  0
  129.5304  131.9220  157.7934 C   0  0  0  0  0  0  0  0  0  0  0  0
  130.2350  132.4031  156.7393 C   0  0  0  0  0  0  0  0  0  0  0  0
  130.5042  131.6863  155.4690 C   0  0  0  0  0  0  0  0  0  0  0  0
  130.0618  132.2177  154.2587 C   0  0  0  0  0  0  0  0  0  0  0  0
  130.3155  131.5466  153.0797 C   0  0  0  0  0  0  0  0  0  0  0  0
  131.0070  130.3481  153.0980 C   0  0  0  0  0  0  0  0  0  0  0  0
  131.2806  129.6199  151.8073 C   0  0  0  0  0  0  0  0  0  0  0  0
  130.1255  128.6628  151.5071 C   0  0  0  0  0  0  0  0  0  0  0  0
  131.4435  129.8139  154.2964 C   0  0  0  0  0  0  0  0  0  0  0  0
  131.2009  130.4792  155.4809 C   0  0  0  0  0  0  0  0  0  0  0  0
  130.6550  133.6540  157.0547 N   0  0  0  0  0  0  0  0  0  0  0  0
  131.1844  134.2308  156.4819 H   0  0  0  0  0  0  0  0  0  0  0  0
  128.4184  135.2559  160.2232 C   0  0  0  0  0  0  0  0  0  0  0  0
  127.7332  134.7980  161.3331 C   0  0  0  0  0  0  0  0  0  0  0  0
  126.3548  134.6987  161.3020 C   0  0  0  0  0  0  0  0  0  0  0  0
  125.6622  135.0485  160.1579 C   0  0  0  0  0  0  0  0  0  0  0  0
  126.3477  135.5012  159.0461 C   0  0  0  0  0  0  0  0  0  0  0  0
  127.7258  135.6048  159.0788 C   0  0  0  0  0  0  0  0  0  0  0  0
  134.1652  138.7592  162.6777 H   0  0  0  0  0  0  0  0  0  0  0  0
  134.0421  140.5052  162.3537 H   0  0  0  0  0  0  0  0  0  0  0  0
  132.6736  139.4312  161.9762 H   0  0  0  0  0  0  0  0  0  0  0  0
  135.4085  139.3727  160.6218 H   0  0  0  0  0  0  0  0  0  0  0  0
  133.9168  140.0447  159.9204 H   0  0  0  0  0  0  0  0  0  0  0  0
  134.3314  137.1448  160.7782 H   0  0  0  0  0  0  0  0  0  0  0  0
  134.3264  137.7404  159.1009 H   0  0  0  0  0  0  0  0  0  0  0  0
  131.8468  138.4553  159.4470 H   0  0  0  0  0  0  0  0  0  0  0  0
  132.3955  136.2048  161.4079 H   0  0  0  0  0  0  0  0  0  0  0  0
  129.9110  137.5152  160.0766 H   0  0  0  0  0  0  0  0  0  0  0  0
  129.9159  136.9195  161.7539 H   0  0  0  0  0  0  0  0  0  0  0  0
  130.9755  135.8551  158.4813 H   0  0  0  0  0  0  0  0  0  0  0  0
  129.0624  130.9512  157.8653 H   0  0  0  0  0  0  0  0  0  0  0  0
  129.5213  133.1526  154.2436 H   0  0  0  0  0  0  0  0  0  0  0  0
  129.9732  131.9574  152.1414 H   0  0  0  0  0  0  0  0  0  0  0  0
  132.2074  129.0544  151.8986 H   0  0  0  0  0  0  0  0  0  0  0  0
  131.3741  130.3421  150.9954 H   0  0  0  0  0  0  0  0  0  0  0  0
  130.3233  128.1360  150.5736 H   0  0  0  0  0  0  0  0  0  0  0  0
  130.0318  127.9412  152.3187 H   0  0  0  0  0  0  0  0  0  0  0  0
  129.1986  129.2288  151.4156 H   0  0  0  0  0  0  0  0  0  0  0  0
  131.9788  128.8759  154.3050 H   0  0  0  0  0  0  0  0  0  0  0  0
  131.5462  130.0632  156.4158 H   0  0  0  0  0  0  0  0  0  0  0  0
  128.2745  134.5213  162.2255 H   0  0  0  0  0  0  0  0  0  0  0  0
  125.8191  134.3452  162.1706 H   0  0  0  0  0  0  0  0  0  0  0  0
  124.5855  134.9683  160.1327 H   0  0  0  0  0  0  0  0  0  0  0  0
  125.8067  135.7745  158.1524 H   0  0  0  0  0  0  0  0  0  0  0  0
  128.2614  135.9587  158.2102 H   0  0  0  0  0  0  0  0  0  0  0  0
  1  2  1  0
  1 31  1  0
  1 32  1  0
  1 33  1  0
  2  3  1  0
  2 34  1  0
  2 35  1  0
  3  4  1  0
  3 36  1  0
  3 37  1  0
  4  5  2  0
  4 38  1  0
  5  6  1  0
  5 39  1  0
  6  7  1  0
  6 40  1  0
  6 41  1  0
  7  8  1  1
  7  9  1  0
  7 25  1  0
  9 42  1  0
 10  9  1  0
 10 23  2  0
 10 11  1  0
 11 12  1  0
 11 13  1  0
 13 14  2  0
 13 43  1  0
 14 15  1  0
 14 23  1  0
 15 22  1  0
 15 16  2  0
 16 17  1  0
 16 44  1  0
 17 18  2  0
 17 45  1  0
 18 19  1  0
 18 21  1  0
 19 20  1  0
 19 46  1  0
 19 47  1  0
 20 48  1  0
 20 49  1  0
 20 50  1  0
 21 22  2  0
 21 51  1  0
 22 52  1  0
 23 24  1  0
 25 30  1  0
 25 26  2  0
 26 27  1  0
 26 53  1  0
 27 28  2  0
 27 54  1  0
 28 29  1  0
 28 55  1  0
 29 30  2  0
 29 56  1  0
 30 57  1  0
M  CHG  1  23   1
M  END
>  <DOCK_score>  (1) 
-63.106876

>  <SMILES>  (1) 
CCCC=CC[C@H](Nc1[nH]cc(-c2ccc(CC)cc2)[nH+]1)c1ccccc1

$$$$
