CCc1ccc(-c2c[nH]c(N[C@@H](c3ccccc3N3CC=CC3)c3cccc4ccccc34)[nH+]2)cc1
     RDKit          3D

 67 72  0  0  1  0  0  0  0  0999 V2000
  130.6264  128.9365  151.9446 C   0  0  0  0  0  0  0  0  0  0  0  0
  131.8553  129.6961  152.4492 C   0  0  0  0  0  0  0  0  0  0  0  0
  131.5068  130.4265  153.7205 C   0  0  0  0  0  0  0  0  0  0  0  0
  131.6764  129.8014  154.9431 C   0  0  0  0  0  0  0  0  0  0  0  0
  131.3587  130.4655  156.1104 C   0  0  0  0  0  0  0  0  0  0  0  0
  130.8664  131.7682  156.0561 C   0  0  0  0  0  0  0  0  0  0  0  0
  130.5232  132.4872  157.3072 C   0  0  0  0  0  0  0  0  0  0  0  0
  130.0824  131.9209  158.4578 C   0  0  0  0  0  0  0  0  0  0  0  0
  129.8876  132.9421  159.3557 N   0  0  0  0  0  0  0  0  0  0  0  0
  129.5747  132.8520  160.2695 H   0  0  0  0  0  0  0  0  0  0  0  0
  130.2154  134.1037  158.7269 C   0  0  0  0  0  0  0  0  0  0  0  0
  130.1570  135.3683  159.2873 N   0  0  0  0  0  0  0  0  0  0  0  0
  129.7118  135.5356  160.6729 C   0  0  1  0  0  0  0  0  0  0  0  0
  130.1253  134.7353  161.2866 H   0  0  0  0  0  0  0  0  0  0  0  0
  130.1872  136.8665  161.1961 C   0  0  0  0  0  0  0  0  0  0  0  0
  129.3961  137.9894  161.0500 C   0  0  0  0  0  0  0  0  0  0  0  0
  129.8295  139.2099  161.5340 C   0  0  0  0  0  0  0  0  0  0  0  0
  131.0603  139.3130  162.1564 C   0  0  0  0  0  0  0  0  0  0  0  0
  131.8584  138.1955  162.3011 C   0  0  0  0  0  0  0  0  0  0  0  0
  131.4237  136.9666  161.8206 C   0  0  0  0  0  0  0  0  0  0  0  0
  132.2286  135.8343  161.9649 N   0  0  0  0  0  0  0  0  0  0  0  0
  133.5840  136.0724  161.4140 C   0  0  0  0  0  0  0  0  0  0  0  0
  134.5230  135.3048  162.3156 C   0  0  0  0  0  0  0  0  0  0  0  0
  133.9106  135.0120  163.4356 C   0  0  0  0  0  0  0  0  0  0  0  0
  132.5005  135.5545  163.3948 C   0  0  0  0  0  0  0  0  0  0  0  0
  128.2066  135.4834  160.7268 C   0  0  0  0  0  0  0  0  0  0  0  0
  127.4870  135.3027  159.5854 C   0  0  0  0  0  0  0  0  0  0  0  0
  126.0950  135.2521  159.6154 C   0  0  0  0  0  0  0  0  0  0  0  0
  125.4140  135.3824  160.7869 C   0  0  0  0  0  0  0  0  0  0  0  0
  126.1225  135.5702  161.9856 C   0  0  0  0  0  0  0  0  0  0  0  0
  125.4544  135.7072  163.2146 C   0  0  0  0  0  0  0  0  0  0  0  0
  126.1739  135.8869  164.3556 C   0  0  0  0  0  0  0  0  0  0  0  0
  127.5664  135.9379  164.3256 C   0  0  0  0  0  0  0  0  0  0  0  0
  128.2473  135.8085  163.1544 C   0  0  0  0  0  0  0  0  0  0  0  0
  127.5387  135.6211  161.9552 C   0  0  0  0  0  0  0  0  0  0  0  0
  130.5900  133.8284  157.5015 N   0  0  0  0  0  0  0  0  0  0  0  0
  130.8719  134.4792  156.8398 H   0  0  0  0  0  0  0  0  0  0  0  0
  130.6926  132.3909  154.8213 C   0  0  0  0  0  0  0  0  0  0  0  0
  131.0190  131.7193  153.6607 C   0  0  0  0  0  0  0  0  0  0  0  0
  130.3068  128.2189  152.7001 H   0  0  0  0  0  0  0  0  0  0  0  0
  129.8187  129.6418  151.7486 H   0  0  0  0  0  0  0  0  0  0  0  0
  130.8783  128.4081  151.0250 H   0  0  0  0  0  0  0  0  0  0  0  0
  132.1747  130.4132  151.6938 H   0  0  0  0  0  0  0  0  0  0  0  0
  132.6627  128.9904  152.6454 H   0  0  0  0  0  0  0  0  0  0  0  0
  132.0580  128.7919  154.9841 H   0  0  0  0  0  0  0  0  0  0  0  0
  131.4916  129.9767  157.0643 H   0  0  0  0  0  0  0  0  0  0  0  0
  129.9158  130.8686  158.6343 H   0  0  0  0  0  0  0  0  0  0  0  0
  130.4109  136.1435  158.7625 H   0  0  0  0  0  0  0  0  0  0  0  0
  128.4365  137.9132  160.5606 H   0  0  0  0  0  0  0  0  0  0  0  0
  129.2074  140.0857  161.4219 H   0  0  0  0  0  0  0  0  0  0  0  0
  131.3977  140.2688  162.5293 H   0  0  0  0  0  0  0  0  0  0  0  0
  132.8192  138.2767  162.7875 H   0  0  0  0  0  0  0  0  0  0  0  0
  133.6483  135.6954  160.3933 H   0  0  0  0  0  0  0  0  0  0  0  0
  133.8208  137.1360  161.4402 H   0  0  0  0  0  0  0  0  0  0  0  0
  135.5415  135.0392  162.0741 H   0  0  0  0  0  0  0  0  0  0  0  0
  134.3456  134.4674  164.2605 H   0  0  0  0  0  0  0  0  0  0  0  0
  132.4321  136.4723  163.9787 H   0  0  0  0  0  0  0  0  0  0  0  0
  131.7991  134.8116  163.7743 H   0  0  0  0  0  0  0  0  0  0  0  0
  128.0029  135.1967  158.6426 H   0  0  0  0  0  0  0  0  0  0  0  0
  125.5480  135.1078  158.6954 H   0  0  0  0  0  0  0  0  0  0  0  0
  124.3346  135.3460  160.7942 H   0  0  0  0  0  0  0  0  0  0  0  0
  124.3758  135.6707  163.2530 H   0  0  0  0  0  0  0  0  0  0  0  0
  125.6580  135.9921  165.2986 H   0  0  0  0  0  0  0  0  0  0  0  0
  128.1133  136.0818  165.2457 H   0  0  0  0  0  0  0  0  0  0  0  0
  129.3265  135.8500  163.1464 H   0  0  0  0  0  0  0  0  0  0  0  0
  130.3069  133.3986  154.7731 H   0  0  0  0  0  0  0  0  0  0  0  0
  130.8889  132.2024  152.7036 H   0  0  0  0  0  0  0  0  0  0  0  0
  1  2  1  0
  1 40  1  0
  1 41  1  0
  1 42  1  0
  2  3  1  0
  2 43  1  0
  2 44  1  0
  3 39  2  0
  3  4  1  0
  4  5  2  0
  4 45  1  0
  5  6  1  0
  5 46  1  0
  6  7  1  0
  6 38  2  0
  7 36  1  0
  7  8  2  0
  8  9  1  0
  8 47  1  0
  9 10  1  0
  9 11  1  0
 11 12  1  0
 11 36  2  0
 12 13  1  0
 12 48  1  0
 13 14  1  1
 13 15  1  0
 13 26  1  0
 15 20  1  0
 15 16  2  0
 16 17  1  0
 16 49  1  0
 17 18  2  0
 17 50  1  0
 18 19  1  0
 18 51  1  0
 19 20  2  0
 19 52  1  0
 20 21  1  0
 21 25  1  0
 21 22  1  0
 22 23  1  0
 22 53  1  0
 22 54  1  0
 23 24  2  0
 23 55  1  0
 24 25  1  0
 24 56  1  0
 25 57  1  0
 25 58  1  0
 26 35  1  0
 26 27  2  0
 27 28  1  0
 27 59  1  0
 28 29  2  0
 28 60  1  0
 29 30  1  0
 29 61  1  0
 30 35  2  0
 30 31  1  0
 31 32  2  0
 31 62  1  0
 32 33  1  0
 32 63  1  0
 33 34  2  0
 33 64  1  0
 34 35  1  0
 34 65  1  0
 36 37  1  0
 38 39  1  0
 38 66  1  0
 39 67  1  0
M  CHG  1  36   1
M  END
>  <DOCK_score>  (1) 
-59.01096

>  <SMILES>  (1) 
CCc1ccc(-c2c[nH]c(N[C@@H](c3ccccc3N3CC=CC3)c3cccc4ccccc34)[nH+]2)cc1

$$$$
