CCc1ccc(Oc2ccccc2C[C@@H]([NH3+])C(=O)Nc2cccc(O)c2)cc1
     RDKit          3D

 53 55  0  0  1  0  0  0  0  0999 V2000
  130.5212  140.9030  162.2557 C   0  0  0  0  0  0  0  0  0  0  0  0
  130.9050  140.5547  160.8161 C   0  0  0  0  0  0  0  0  0  0  0  0
  131.3292  139.1104  160.7446 C   0  0  0  0  0  0  0  0  0  0  0  0
  130.3912  138.1276  160.4877 C   0  0  0  0  0  0  0  0  0  0  0  0
  130.7784  136.8035  160.4160 C   0  0  0  0  0  0  0  0  0  0  0  0
  132.1078  136.4589  160.6139 C   0  0  0  0  0  0  0  0  0  0  0  0
  132.4904  135.1566  160.5493 O   0  0  0  0  0  0  0  0  0  0  0  0
  131.7235  134.2342  161.1876 C   0  0  0  0  0  0  0  0  0  0  0  0
  131.5325  134.3183  162.5596 C   0  0  0  0  0  0  0  0  0  0  0  0
  130.7479  133.3831  163.2050 C   0  0  0  0  0  0  0  0  0  0  0  0
  130.1622  132.3560  162.4871 C   0  0  0  0  0  0  0  0  0  0  0  0
  130.3555  132.2667  161.1211 C   0  0  0  0  0  0  0  0  0  0  0  0
  131.1348  133.2032  160.4697 C   0  0  0  0  0  0  0  0  0  0  0  0
  131.3456  133.1048  158.9808 C   0  0  0  0  0  0  0  0  0  0  0  0
  130.2500  133.8906  158.2575 C   0  0  1  0  0  0  0  0  0  0  0  0
  130.2917  134.9363  158.5619 H   0  0  0  0  0  0  0  0  0  0  0  0
  130.4557  133.7946  156.8061 N   0  0  0  0  0  0  0  0  0  0  0  0
  129.7332  134.3128  156.3290 H   0  0  0  0  0  0  0  0  0  0  0  0
  131.3579  134.1785  156.5682 H   0  0  0  0  0  0  0  0  0  0  0  0
  130.4173  132.8265  156.5242 H   0  0  0  0  0  0  0  0  0  0  0  0
  128.9025  133.3172  158.6129 C   0  0  0  0  0  0  0  0  0  0  0  0
  128.4258  132.4272  157.9408 O   0  0  0  0  0  0  0  0  0  0  0  0
  128.2272  133.7934  159.6776 N   0  0  0  0  0  0  0  0  0  0  0  0
  126.9759  133.2609  160.0077 C   0  0  0  0  0  0  0  0  0  0  0  0
  126.6836  131.9357  159.7101 C   0  0  0  0  0  0  0  0  0  0  0  0
  125.4508  131.4084  160.0415 C   0  0  0  0  0  0  0  0  0  0  0  0
  124.5008  132.2003  160.6585 C   0  0  0  0  0  0  0  0  0  0  0  0
  124.7851  133.5262  160.9529 C   0  0  0  0  0  0  0  0  0  0  0  0
  123.8501  134.3036  161.5594 O   0  0  0  0  0  0  0  0  0  0  0  0
  126.0236  134.0573  160.6274 C   0  0  0  0  0  0  0  0  0  0  0  0
  133.0462  137.4467  160.8771 C   0  0  0  0  0  0  0  0  0  0  0  0
  132.6548  138.7699  160.9415 C   0  0  0  0  0  0  0  0  0  0  0  0
  129.6968  140.2660  162.5761 H   0  0  0  0  0  0  0  0  0  0  0  0
  131.3789  140.7433  162.9091 H   0  0  0  0  0  0  0  0  0  0  0  0
  130.2145  141.9477  162.3073 H   0  0  0  0  0  0  0  0  0  0  0  0
  130.0473  140.7143  160.1626 H   0  0  0  0  0  0  0  0  0  0  0  0
  131.7295  141.1917  160.4957 H   0  0  0  0  0  0  0  0  0  0  0  0
  129.3556  138.3957  160.3390 H   0  0  0  0  0  0  0  0  0  0  0  0
  130.0462  136.0366  160.2111 H   0  0  0  0  0  0  0  0  0  0  0  0
  131.9935  135.1171  163.1216 H   0  0  0  0  0  0  0  0  0  0  0  0
  130.5942  133.4510  164.2719 H   0  0  0  0  0  0  0  0  0  0  0  0
  129.5527  131.6229  162.9943 H   0  0  0  0  0  0  0  0  0  0  0  0
  129.8973  131.4637  160.5628 H   0  0  0  0  0  0  0  0  0  0  0  0
  132.3203  133.5194  158.7237 H   0  0  0  0  0  0  0  0  0  0  0  0
  131.3040  132.0589  158.6762 H   0  0  0  0  0  0  0  0  0  0  0  0
  128.6084  134.5050  160.2152 H   0  0  0  0  0  0  0  0  0  0  0  0
  127.4226  131.3161  159.2237 H   0  0  0  0  0  0  0  0  0  0  0  0
  125.2270  130.3766  159.8138 H   0  0  0  0  0  0  0  0  0  0  0  0
  123.5360  131.7864  160.9120 H   0  0  0  0  0  0  0  0  0  0  0  0
  124.1398  135.2115  161.7236 H   0  0  0  0  0  0  0  0  0  0  0  0
  126.2468  135.0889  160.8561 H   0  0  0  0  0  0  0  0  0  0  0  0
  134.0815  137.1812  161.0316 H   0  0  0  0  0  0  0  0  0  0  0  0
  133.3847  139.5391  161.1465 H   0  0  0  0  0  0  0  0  0  0  0  0
  1  2  1  0
  1 33  1  0
  1 34  1  0
  1 35  1  0
  2  3  1  0
  2 36  1  0
  2 37  1  0
  3 32  2  0
  3  4  1  0
  4  5  2  0
  4 38  1  0
  5  6  1  0
  5 39  1  0
  6  7  1  0
  6 31  2  0
  7  8  1  0
  8 13  1  0
  8  9  2  0
  9 10  1  0
  9 40  1  0
 10 11  2  0
 10 41  1  0
 11 12  1  0
 11 42  1  0
 12 13  2  0
 12 43  1  0
 13 14  1  0
 14 15  1  0
 14 44  1  0
 14 45  1  0
 15 16  1  1
 15 17  1  0
 15 21  1  0
 17 18  1  0
 17 19  1  0
 17 20  1  0
 21 22  2  0
 21 23  1  0
 23 24  1  0
 23 46  1  0
 24 30  1  0
 24 25  2  0
 25 26  1  0
 25 47  1  0
 26 27  2  0
 26 48  1  0
 27 28  1  0
 27 49  1  0
 28 29  1  0
 28 30  2  0
 29 50  1  0
 30 51  1  0
 31 32  1  0
 31 52  1  0
 32 53  1  0
M  CHG  1  17   1
M  END
>  <DOCK_score>  (1) 
-49.019665

>  <SMILES>  (1) 
CCc1ccc(Oc2ccccc2C[C@@H]([NH3+])C(=O)Nc2cccc(O)c2)cc1

$$$$
