Oc1ccc(-c2ccc(C[C@H](Nc3[nH]cc(-c4cccnc4)[nH+]3)c3ccccc3)cc2)cc1
     RDKit          3D

 58 62  0  0  1  0  0  0  0  0999 V2000
  139.2115  139.8360  161.3310 O   0  0  0  0  0  0  0  0  0  0  0  0
  137.8889  139.5296  161.2751 C   0  0  0  0  0  0  0  0  0  0  0  0
  137.0925  140.0778  160.2789 C   0  0  0  0  0  0  0  0  0  0  0  0
  135.7496  139.7689  160.2196 C   0  0  0  0  0  0  0  0  0  0  0  0
  135.1926  138.9052  161.1610 C   0  0  0  0  0  0  0  0  0  0  0  0
  133.7483  138.5711  161.1004 C   0  0  0  0  0  0  0  0  0  0  0  0
  133.0500  138.2716  162.2684 C   0  0  0  0  0  0  0  0  0  0  0  0
  131.7064  137.9620  162.2060 C   0  0  0  0  0  0  0  0  0  0  0  0
  131.0530  137.9491  160.9870 C   0  0  0  0  0  0  0  0  0  0  0  0
  129.5857  137.6108  160.9254 C   0  0  0  0  0  0  0  0  0  0  0  0
  129.4177  136.1009  160.7437 C   0  0  2  0  0  0  0  0  0  0  0  0
  129.8756  135.5806  161.5849 H   0  0  0  0  0  0  0  0  0  0  0  0
  130.0680  135.6836  159.4989 N   0  0  0  0  0  0  0  0  0  0  0  0
  130.0475  134.3523  159.1199 C   0  0  0  0  0  0  0  0  0  0  0  0
  129.4645  133.3387  159.8162 N   0  0  0  0  0  0  0  0  0  0  0  0
  128.9926  133.4184  160.6600 H   0  0  0  0  0  0  0  0  0  0  0  0
  129.6651  132.1823  159.1021 C   0  0  0  0  0  0  0  0  0  0  0  0
  130.3716  132.5209  157.9953 C   0  0  0  0  0  0  0  0  0  0  0  0
  130.8245  131.5924  156.9310 C   0  0  0  0  0  0  0  0  0  0  0  0
  130.9623  132.0362  155.6124 C   0  0  0  0  0  0  0  0  0  0  0  0
  131.3938  131.1323  154.6573 C   0  0  0  0  0  0  0  0  0  0  0  0
  131.6612  129.8279  155.0322 C   0  0  0  0  0  0  0  0  0  0  0  0
  131.5168  129.4366  156.2834 N   0  0  0  0  0  0  0  0  0  0  0  0
  131.1141  130.2620  157.2278 C   0  0  0  0  0  0  0  0  0  0  0  0
  130.5913  133.8593  158.0340 N   0  0  0  0  0  0  0  0  0  0  0  0
  131.0741  134.3695  157.3651 H   0  0  0  0  0  0  0  0  0  0  0  0
  127.9505  135.7626  160.6819 C   0  0  0  0  0  0  0  0  0  0  0  0
  127.2615  135.4606  161.8416 C   0  0  0  0  0  0  0  0  0  0  0  0
  125.9147  135.1541  161.7855 C   0  0  0  0  0  0  0  0  0  0  0  0
  125.2589  135.1414  160.5686 C   0  0  0  0  0  0  0  0  0  0  0  0
  125.9491  135.4381  159.4084 C   0  0  0  0  0  0  0  0  0  0  0  0
  127.2950  135.7484  159.4650 C   0  0  0  0  0  0  0  0  0  0  0  0
  131.7412  138.2453  159.8243 C   0  0  0  0  0  0  0  0  0  0  0  0
  133.0850  138.5558  159.8747 C   0  0  0  0  0  0  0  0  0  0  0  0
  135.9937  138.3604  162.1632 C   0  0  0  0  0  0  0  0  0  0  0  0
  137.3367  138.6693  162.2146 C   0  0  0  0  0  0  0  0  0  0  0  0
  139.5045  140.4416  160.6365 H   0  0  0  0  0  0  0  0  0  0  0  0
  137.5246  140.7473  159.5499 H   0  0  0  0  0  0  0  0  0  0  0  0
  135.1304  140.1959  159.4447 H   0  0  0  0  0  0  0  0  0  0  0  0
  133.5582  138.2861  163.2213 H   0  0  0  0  0  0  0  0  0  0  0  0
  131.1643  137.7297  163.1108 H   0  0  0  0  0  0  0  0  0  0  0  0
  129.1020  137.9213  161.8516 H   0  0  0  0  0  0  0  0  0  0  0  0
  129.1278  138.1312  160.0842 H   0  0  0  0  0  0  0  0  0  0  0  0
  130.5128  136.3401  158.9404 H   0  0  0  0  0  0  0  0  0  0  0  0
  129.3283  131.1925  159.3726 H   0  0  0  0  0  0  0  0  0  0  0  0
  130.7417  133.0595  155.3468 H   0  0  0  0  0  0  0  0  0  0  0  0
  131.5162  131.4409  153.6296 H   0  0  0  0  0  0  0  0  0  0  0  0
  131.9939  129.1188  154.2885 H   0  0  0  0  0  0  0  0  0  0  0  0
  131.0078  129.9046  158.2414 H   0  0  0  0  0  0  0  0  0  0  0  0
  127.7746  135.4672  162.7920 H   0  0  0  0  0  0  0  0  0  0  0  0
  125.3755  134.9218  162.6919 H   0  0  0  0  0  0  0  0  0  0  0  0
  124.2073  134.8992  160.5245 H   0  0  0  0  0  0  0  0  0  0  0  0
  125.4369  135.4279  158.4575 H   0  0  0  0  0  0  0  0  0  0  0  0
  127.8344  135.9804  158.5584 H   0  0  0  0  0  0  0  0  0  0  0  0
  131.2262  138.2330  158.8751 H   0  0  0  0  0  0  0  0  0  0  0  0
  133.6215  138.7865  158.9662 H   0  0  0  0  0  0  0  0  0  0  0  0
  135.5638  137.6942  162.8965 H   0  0  0  0  0  0  0  0  0  0  0  0
  137.9587  138.2447  162.9885 H   0  0  0  0  0  0  0  0  0  0  0  0
  1  2  1  0
  1 37  1  0
  2 36  2  0
  2  3  1  0
  3  4  2  0
  3 38  1  0
  4  5  1  0
  4 39  1  0
  5  6  1  0
  5 35  2  0
  6 34  1  0
  6  7  2  0
  7  8  1  0
  7 40  1  0
  8  9  2  0
  8 41  1  0
  9 10  1  0
  9 33  1  0
 10 11  1  0
 10 42  1  0
 10 43  1  0
 11 12  1  1
 11 13  1  0
 11 27  1  0
 13 44  1  0
 14 13  1  0
 14 25  2  0
 14 15  1  0
 15 16  1  0
 15 17  1  0
 17 18  2  0
 17 45  1  0
 18 19  1  0
 18 25  1  0
 19 24  1  0
 19 20  2  0
 20 21  1  0
 20 46  1  0
 21 22  2  0
 21 47  1  0
 22 23  1  0
 22 48  1  0
 23 24  2  0
 24 49  1  0
 25 26  1  0
 27 32  1  0
 27 28  2  0
 28 29  1  0
 28 50  1  0
 29 30  2  0
 29 51  1  0
 30 31  1  0
 30 52  1  0
 31 32  2  0
 31 53  1  0
 32 54  1  0
 33 34  2  0
 33 55  1  0
 34 56  1  0
 35 36  1  0
 35 57  1  0
 36 58  1  0
M  CHG  1  25   1
M  END
>  <DOCK_score>  (1) 
-65.419998

>  <SMILES>  (1) 
Oc1ccc(-c2ccc(C[C@H](Nc3[nH]cc(-c4cccnc4)[nH+]3)c3ccccc3)cc2)cc1

$$$$
