c1ccn2ncc(Nc3ccc(-c4n[nH]cc4C[NH2+]CC4CCCC4)o3)c2c1
     RDKit          3D

 53 57  0  0  0  0  0  0  0  0999 V2000
  125.8531  139.0875  165.2958 C   0  0  0  0  0  0  0  0  0  0  0  0
  126.8651  140.0621  165.3396 C   0  0  0  0  0  0  0  0  0  0  0  0
  127.8006  140.1206  164.3700 C   0  0  0  0  0  0  0  0  0  0  0  0
  127.7811  139.2338  163.3287 N   0  0  0  0  0  0  0  0  0  0  0  0
  128.6093  139.0691  162.2117 N   0  0  0  0  0  0  0  0  0  0  0  0
  128.1655  138.0593  161.4939 C   0  0  0  0  0  0  0  0  0  0  0  0
  127.0384  137.5278  162.1083 C   0  0  0  0  0  0  0  0  0  0  0  0
  126.2755  136.4383  161.6487 N   0  0  0  0  0  0  0  0  0  0  0  0
  126.8813  135.4268  160.9148 C   0  0  0  0  0  0  0  0  0  0  0  0
  126.2602  134.3281  160.4159 C   0  0  0  0  0  0  0  0  0  0  0  0
  127.2410  133.5689  159.7489 C   0  0  0  0  0  0  0  0  0  0  0  0
  128.4126  134.2485  159.8661 C   0  0  0  0  0  0  0  0  0  0  0  0
  129.7164  133.8267  159.3141 C   0  0  0  0  0  0  0  0  0  0  0  0
  129.9472  132.7308  158.6182 N   0  0  0  0  0  0  0  0  0  0  0  0
  131.3074  132.7055  158.2852 N   0  0  0  0  0  0  0  0  0  0  0  0
  131.7553  132.0132  157.7744 H   0  0  0  0  0  0  0  0  0  0  0  0
  131.8876  133.8122  158.7981 C   0  0  0  0  0  0  0  0  0  0  0  0
  130.9350  134.5281  159.4329 C   0  0  0  0  0  0  0  0  0  0  0  0
  131.1378  135.8404  160.1453 C   0  0  0  0  0  0  0  0  0  0  0  0
  132.5477  136.2399  160.0440 N   0  0  0  0  0  0  0  0  0  0  0  0
  133.1289  135.5331  160.4693 H   0  0  0  0  0  0  0  0  0  0  0  0
  132.7994  136.3422  159.0722 H   0  0  0  0  0  0  0  0  0  0  0  0
  132.7454  137.5192  160.7384 C   0  0  0  0  0  0  0  0  0  0  0  0
  134.2139  137.9352  160.6329 C   0  0  0  0  0  0  0  0  0  0  0  0
  134.5348  139.0140  161.6881 C   0  0  0  0  0  0  0  0  0  0  0  0
  135.5204  139.9681  160.9671 C   0  0  0  0  0  0  0  0  0  0  0  0
  134.9598  140.0132  159.5240 C   0  0  0  0  0  0  0  0  0  0  0  0
  134.4845  138.5699  159.2574 C   0  0  0  0  0  0  0  0  0  0  0  0
  128.1816  135.3714  160.5784 O   0  0  0  0  0  0  0  0  0  0  0  0
  126.7982  138.2746  163.2593 C   0  0  0  0  0  0  0  0  0  0  0  0
  125.8191  138.1980  164.2664 C   0  0  0  0  0  0  0  0  0  0  0  0
  125.1062  139.0449  166.0747 H   0  0  0  0  0  0  0  0  0  0  0  0
  126.8938  140.7688  166.1557 H   0  0  0  0  0  0  0  0  0  0  0  0
  128.5726  140.8743  164.4165 H   0  0  0  0  0  0  0  0  0  0  0  0
  128.6067  137.7011  160.5754 H   0  0  0  0  0  0  0  0  0  0  0  0
  125.3265  136.3939  161.8444 H   0  0  0  0  0  0  0  0  0  0  0  0
  125.2136  134.0807  160.5155 H   0  0  0  0  0  0  0  0  0  0  0  0
  127.0907  132.6284  159.2397 H   0  0  0  0  0  0  0  0  0  0  0  0
  132.9302  134.0803  158.7109 H   0  0  0  0  0  0  0  0  0  0  0  0
  130.5099  136.6039  159.6858 H   0  0  0  0  0  0  0  0  0  0  0  0
  130.8659  135.7298  161.1950 H   0  0  0  0  0  0  0  0  0  0  0  0
  132.1176  138.2828  160.2790 H   0  0  0  0  0  0  0  0  0  0  0  0
  132.4736  137.4086  161.7882 H   0  0  0  0  0  0  0  0  0  0  0  0
  134.8586  137.0683  160.7773 H   0  0  0  0  0  0  0  0  0  0  0  0
  133.6289  139.5477  161.9755 H   0  0  0  0  0  0  0  0  0  0  0  0
  135.0074  138.5646  162.5615 H   0  0  0  0  0  0  0  0  0  0  0  0
  136.5303  139.5582  160.9767 H   0  0  0  0  0  0  0  0  0  0  0  0
  135.5032  140.9597  161.4193 H   0  0  0  0  0  0  0  0  0  0  0  0
  135.7428  140.2932  158.8192 H   0  0  0  0  0  0  0  0  0  0  0  0
  134.1229  140.7085  159.4591 H   0  0  0  0  0  0  0  0  0  0  0  0
  135.2611  138.0115  158.7348 H   0  0  0  0  0  0  0  0  0  0  0  0
  133.5697  138.5808  158.6649 H   0  0  0  0  0  0  0  0  0  0  0  0
  125.0469  137.4443  164.2210 H   0  0  0  0  0  0  0  0  0  0  0  0
  1 31  2  0
  1  2  1  0
  1 32  1  0
  2  3  2  0
  2 33  1  0
  3  4  1  0
  3 34  1  0
  4 30  1  0
  4  5  1  0
  5  6  2  0
  6  7  1  0
  6 35  1  0
  7  8  1  0
  7 30  2  0
  8  9  1  0
  8 36  1  0
  9 29  1  0
  9 10  2  0
 10 11  1  0
 10 37  1  0
 11 12  2  0
 11 38  1  0
 12 13  1  0
 12 29  1  0
 13 18  1  0
 13 14  2  0
 14 15  1  0
 15 16  1  0
 15 17  1  0
 17 18  2  0
 17 39  1  0
 18 19  1  0
 19 20  1  0
 19 40  1  0
 19 41  1  0
 20 21  1  0
 20 22  1  0
 20 23  1  0
 23 24  1  0
 23 42  1  0
 23 43  1  0
 24 28  1  0
 24 25  1  0
 24 44  1  0
 25 26  1  0
 25 45  1  0
 25 46  1  0
 26 27  1  0
 26 47  1  0
 26 48  1  0
 27 28  1  0
 27 49  1  0
 27 50  1  0
 28 51  1  0
 28 52  1  0
 30 31  1  0
 31 53  1  0
M  CHG  1  20   1
M  END
>  <DOCK_score>  (1) 
-43.81385

>  <SMILES>  (1) 
c1ccn2ncc(Nc3ccc(-c4n[nH]cc4C[NH2+]CC4CCCC4)o3)c2c1

$$$$
