Nc1ccc(Sc2ccccc2)c(Nc2[nH]cc(-c3ccc(C4CC=CC4)cc3)[nH+]2)c1
     RDKit          3D

 56 60  0  0  1  0  0  0  0  0999 V2000
  125.8983  135.5358  161.5770 N   0  0  0  0  0  0  0  0  0  0  0  0
  127.2486  135.8807  161.7048 C   0  0  0  0  0  0  0  0  0  0  0  0
  127.6698  136.6473  162.7839 C   0  0  0  0  0  0  0  0  0  0  0  0
  129.0024  136.9899  162.9133 C   0  0  0  0  0  0  0  0  0  0  0  0
  129.9242  136.5643  161.9684 C   0  0  0  0  0  0  0  0  0  0  0  0
  131.6242  136.9954  162.1383 S   0  0  0  0  0  0  0  0  0  0  0  0
  131.5909  138.7569  162.1122 C   0  0  0  0  0  0  0  0  0  0  0  0
  131.0867  139.4278  161.0043 C   0  0  0  0  0  0  0  0  0  0  0  0
  131.0577  140.8082  160.9895 C   0  0  0  0  0  0  0  0  0  0  0  0
  131.5390  141.5234  162.0711 C   0  0  0  0  0  0  0  0  0  0  0  0
  132.0469  140.8592  163.1730 C   0  0  0  0  0  0  0  0  0  0  0  0
  132.0741  139.4790  163.1971 C   0  0  0  0  0  0  0  0  0  0  0  0
  129.5035  135.7984  160.8810 C   0  0  0  0  0  0  0  0  0  0  0  0
  130.4311  135.3712  159.9233 N   0  0  0  0  0  0  0  0  0  0  0  0
  130.2251  134.1836  159.2411 C   0  0  0  0  0  0  0  0  0  0  0  0
  129.5753  133.0913  159.7289 N   0  0  0  0  0  0  0  0  0  0  0  0
  129.1766  133.0055  160.6089 H   0  0  0  0  0  0  0  0  0  0  0  0
  129.5882  132.1336  158.7447 C   0  0  0  0  0  0  0  0  0  0  0  0
  130.2449  132.6671  157.6847 C   0  0  0  0  0  0  0  0  0  0  0  0
  130.5034  131.9931  156.3889 C   0  0  0  0  0  0  0  0  0  0  0  0
  130.0072  132.5377  155.2058 C   0  0  0  0  0  0  0  0  0  0  0  0
  130.2504  131.9060  154.0032 C   0  0  0  0  0  0  0  0  0  0  0  0
  130.9851  130.7349  153.9702 C   0  0  0  0  0  0  0  0  0  0  0  0
  131.2471  130.0492  152.6541 C   0  0  0  0  0  0  0  0  0  0  0  0
  131.1776  128.5118  152.8051 C   0  0  0  0  0  0  0  0  0  0  0  0
  130.5314  128.0268  151.5282 C   0  0  0  0  0  0  0  0  0  0  0  0
  129.9409  129.0059  150.8989 C   0  0  0  0  0  0  0  0  0  0  0  0
  130.0948  130.3074  151.6510 C   0  0  0  0  0  0  0  0  0  0  0  0
  131.4759  130.1867  155.1421 C   0  0  0  0  0  0  0  0  0  0  0  0
  131.2432  130.8125  156.3498 C   0  0  0  0  0  0  0  0  0  0  0  0
  130.6283  133.9239  158.0211 N   0  0  0  0  0  0  0  0  0  0  0  0
  131.1205  134.5338  157.4495 H   0  0  0  0  0  0  0  0  0  0  0  0
  128.1660  135.4561  160.7534 C   0  0  0  0  0  0  0  0  0  0  0  0
  125.6038  135.0002  160.8238 H   0  0  0  0  0  0  0  0  0  0  0  0
  125.2569  135.8323  162.2416 H   0  0  0  0  0  0  0  0  0  0  0  0
  126.9543  136.9765  163.5229 H   0  0  0  0  0  0  0  0  0  0  0  0
  129.3270  137.5857  163.7536 H   0  0  0  0  0  0  0  0  0  0  0  0
  130.7144  138.8701  160.1577 H   0  0  0  0  0  0  0  0  0  0  0  0
  130.6622  141.3301  160.1307 H   0  0  0  0  0  0  0  0  0  0  0  0
  131.5187  142.6031  162.0552 H   0  0  0  0  0  0  0  0  0  0  0  0
  132.4221  141.4209  164.0156 H   0  0  0  0  0  0  0  0  0  0  0  0
  132.4707  138.9610  164.0578 H   0  0  0  0  0  0  0  0  0  0  0  0
  131.2182  135.9069  159.7375 H   0  0  0  0  0  0  0  0  0  0  0  0
  129.1575  131.1450  158.8034 H   0  0  0  0  0  0  0  0  0  0  0  0
  129.4335  133.4525  155.2301 H   0  0  0  0  0  0  0  0  0  0  0  0
  129.8666  132.3273  153.0857 H   0  0  0  0  0  0  0  0  0  0  0  0
  132.2057  130.3585  152.2377 H   0  0  0  0  0  0  0  0  0  0  0  0
  130.5662  128.2421  153.6664 H   0  0  0  0  0  0  0  0  0  0  0  0
  132.1795  128.0945  152.9059 H   0  0  0  0  0  0  0  0  0  0  0  0
  130.5553  127.0042  151.1817 H   0  0  0  0  0  0  0  0  0  0  0  0
  129.4120  128.9000  149.9632 H   0  0  0  0  0  0  0  0  0  0  0  0
  130.3613  131.1124  150.9663 H   0  0  0  0  0  0  0  0  0  0  0  0
  129.1743  130.5504  152.1818 H   0  0  0  0  0  0  0  0  0  0  0  0
  132.0452  129.2695  155.1111 H   0  0  0  0  0  0  0  0  0  0  0  0
  131.6305  130.3862  157.2635 H   0  0  0  0  0  0  0  0  0  0  0  0
  127.8381  134.8600  159.9147 H   0  0  0  0  0  0  0  0  0  0  0  0
  1  2  1  0
  1 34  1  0
  1 35  1  0
  2 33  2  0
  2  3  1  0
  3  4  2  0
  3 36  1  0
  4  5  1  0
  4 37  1  0
  5  6  1  0
  5 13  2  0
  6  7  1  0
  7 12  1  0
  7  8  2  0
  8  9  1  0
  8 38  1  0
  9 10  2  0
  9 39  1  0
 10 11  1  0
 10 40  1  0
 11 12  2  0
 11 41  1  0
 12 42  1  0
 13 14  1  0
 13 33  1  0
 14 43  1  0
 15 14  1  0
 15 31  2  0
 15 16  1  0
 16 17  1  0
 16 18  1  0
 18 19  2  0
 18 44  1  0
 19 20  1  0
 19 31  1  0
 20 30  1  0
 20 21  2  0
 21 22  1  0
 21 45  1  0
 22 23  2  0
 22 46  1  0
 23 24  1  0
 23 29  1  0
 24 28  1  0
 24 25  1  0
 24 47  1  0
 25 26  1  0
 25 48  1  0
 25 49  1  0
 26 27  2  0
 26 50  1  0
 27 28  1  0
 27 51  1  0
 28 52  1  0
 28 53  1  0
 29 30  2  0
 29 54  1  0
 30 55  1  0
 31 32  1  0
 33 56  1  0
M  CHG  1  31   1
M  END
>  <DOCK_score>  (1) 
-58.505161

>  <SMILES>  (1) 
Nc1ccc(Sc2ccccc2)c(Nc2[nH]cc(-c3ccc(C4CC=CC4)cc3)[nH+]2)c1

$$$$
