O=C1CC[C@H](NC(NC2CC=CC2)=[NH+]C2CC2Cc2ccccc2)CN1
     RDKit          3D

 55 58  0  0  1  0  0  0  0  0999 V2000
  123.9405  133.1504  161.5422 O   0  0  0  0  0  0  0  0  0  0  0  0
  125.1038  133.3601  161.2708 C   0  0  0  0  0  0  0  0  0  0  0  0
  125.9286  132.2188  160.7489 C   0  0  0  0  0  0  0  0  0  0  0  0
  127.4174  132.5484  160.8826 C   0  0  0  0  0  0  0  0  0  0  0  0
  127.6570  133.9501  160.3090 C   0  0  2  0  0  0  0  0  0  0  0  0
  127.2418  134.0094  159.3028 H   0  0  0  0  0  0  0  0  0  0  0  0
  129.0955  134.2236  160.2638 N   0  0  0  0  0  0  0  0  0  0  0  0
  129.8232  133.8938  159.1451 C   0  0  0  0  0  0  0  0  0  0  0  0
  129.2010  133.3072  158.0686 N   0  0  0  0  0  0  0  0  0  0  0  0
  129.9765  132.9558  156.8764 C   0  0  0  0  0  0  0  0  0  0  0  0
  129.1235  132.1354  155.8812 C   0  0  0  0  0  0  0  0  0  0  0  0
  130.0804  131.1202  155.3009 C   0  0  0  0  0  0  0  0  0  0  0  0
  131.1573  131.0182  156.0315 C   0  0  0  0  0  0  0  0  0  0  0  0
  131.0979  131.9484  157.2208 C   0  0  0  0  0  0  0  0  0  0  0  0
  131.1032  134.1371  159.1050 N   0  0  0  0  0  0  0  0  0  0  0  0
  131.5344  134.3275  158.2574 H   0  0  0  0  0  0  0  0  0  0  0  0
  131.8904  134.1233  160.3405 C   0  0  1  0  0  0  0  0  0  0  0  0
  133.2213  134.8780  160.3393 C   0  0  0  0  0  0  0  0  0  0  0  0
  132.0238  135.4400  161.1081 C   0  0  1  0  0  0  0  0  0  0  0  0
  131.3251  136.6706  160.5264 C   0  0  0  0  0  0  0  0  0  0  0  0
  132.0330  137.9171  160.9919 C   0  0  0  0  0  0  0  0  0  0  0  0
  131.6432  138.5360  162.1649 C   0  0  0  0  0  0  0  0  0  0  0  0
  132.2924  139.6792  162.5918 C   0  0  0  0  0  0  0  0  0  0  0  0
  133.3279  140.2065  161.8431 C   0  0  0  0  0  0  0  0  0  0  0  0
  133.7215  139.5842  160.6731 C   0  0  0  0  0  0  0  0  0  0  0  0
  133.0723  138.4409  160.2462 C   0  0  0  0  0  0  0  0  0  0  0  0
  126.9684  134.9734  161.2129 C   0  0  0  0  0  0  0  0  0  0  0  0
  125.5822  134.5916  161.4520 N   0  0  0  0  0  0  0  0  0  0  0  0
  125.6884  132.0486  159.6994 H   0  0  0  0  0  0  0  0  0  0  0  0
  125.7043  131.3186  161.3210 H   0  0  0  0  0  0  0  0  0  0  0  0
  128.0062  131.8188  160.3266 H   0  0  0  0  0  0  0  0  0  0  0  0
  127.7049  132.5280  161.9339 H   0  0  0  0  0  0  0  0  0  0  0  0
  129.5346  134.6374  161.0235 H   0  0  0  0  0  0  0  0  0  0  0  0
  128.2486  133.1261  158.0984 H   0  0  0  0  0  0  0  0  0  0  0  0
  130.3843  133.8476  156.4006 H   0  0  0  0  0  0  0  0  0  0  0  0
  128.3085  131.6339  156.4032 H   0  0  0  0  0  0  0  0  0  0  0  0
  128.7318  132.7808  155.0949 H   0  0  0  0  0  0  0  0  0  0  0  0
  129.8976  130.5537  154.3998 H   0  0  0  0  0  0  0  0  0  0  0  0
  131.9824  130.3562  155.8143 H   0  0  0  0  0  0  0  0  0  0  0  0
  132.0488  132.4666  157.3453 H   0  0  0  0  0  0  0  0  0  0  0  0
  130.8457  131.3936  158.1246 H   0  0  0  0  0  0  0  0  0  0  0  0
  131.8336  133.2041  160.9239 H   0  0  0  0  0  0  0  0  0  0  0  0
  133.5114  135.3851  159.4191 H   0  0  0  0  0  0  0  0  0  0  0  0
  134.0400  134.4556  160.9217 H   0  0  0  0  0  0  0  0  0  0  0  0
  132.0543  135.3873  162.1964 H   0  0  0  0  0  0  0  0  0  0  0  0
  130.2890  136.6937  160.8640 H   0  0  0  0  0  0  0  0  0  0  0  0
  131.3517  136.6228  159.4378 H   0  0  0  0  0  0  0  0  0  0  0  0
  130.8312  138.1266  162.7475 H   0  0  0  0  0  0  0  0  0  0  0  0
  131.9877  140.1631  163.5080 H   0  0  0  0  0  0  0  0  0  0  0  0
  133.8324  141.1022  162.1745 H   0  0  0  0  0  0  0  0  0  0  0  0
  134.5339  139.9933  160.0908 H   0  0  0  0  0  0  0  0  0  0  0  0
  133.3774  137.9569  159.3302 H   0  0  0  0  0  0  0  0  0  0  0  0
  127.4967  135.0265  162.1649 H   0  0  0  0  0  0  0  0  0  0  0  0
  126.9950  135.9524  160.7345 H   0  0  0  0  0  0  0  0  0  0  0  0
  124.9691  135.2762  161.7626 H   0  0  0  0  0  0  0  0  0  0  0  0
  1  2  2  0
  2 28  1  0
  2  3  1  0
  3  4  1  0
  3 29  1  0
  3 30  1  0
  4  5  1  0
  4 31  1  0
  4 32  1  0
  5  6  1  6
  5  7  1  0
  5 27  1  0
  7 33  1  0
  8  7  1  0
  8  9  1  0
  8 15  2  0
  9 10  1  0
  9 34  1  0
 10 14  1  0
 10 11  1  0
 10 35  1  0
 11 12  1  0
 11 36  1  0
 11 37  1  0
 12 13  2  0
 12 38  1  0
 13 14  1  0
 13 39  1  0
 14 40  1  0
 14 41  1  0
 15 16  1  0
 15 17  1  0
 17 19  1  0
 17 18  1  0
 17 42  1  1
 18 19  1  0
 18 43  1  0
 18 44  1  0
 19 20  1  0
 19 45  1  1
 20 21  1  0
 20 46  1  0
 20 47  1  0
 21 26  1  0
 21 22  2  0
 22 23  1  0
 22 48  1  0
 23 24  2  0
 23 49  1  0
 24 25  1  0
 24 50  1  0
 25 26  2  0
 25 51  1  0
 26 52  1  0
 27 28  1  0
 27 53  1  0
 27 54  1  0
 28 55  1  0
M  CHG  1  15   1
M  END
>  <DOCK_score>  (1) 
-46.267086

>  <SMILES>  (1) 
O=C1CC[C@H](NC(NC2CC=CC2)=[NH+]C2CC2Cc2ccccc2)CN1

$$$$
