Cc1nn(-c2ccc(F)cc2)cc1C=C[C@H](Nc1[nH]cc(-c2ccc(N)cc2)[nH+]1)c1ccnn1C
     RDKit          3D

 61 65  0  0  1  0  0  0  0  0999 V2000
  134.3819  137.6079  158.8560 C   0  0  0  0  0  0  0  0  0  0  0  0
  133.9752  137.7063  160.3037 C   0  0  0  0  0  0  0  0  0  0  0  0
  134.4523  138.5516  161.1786 N   0  0  0  0  0  0  0  0  0  0  0  0
  133.8264  138.3212  162.4096 N   0  0  0  0  0  0  0  0  0  0  0  0
  134.0716  139.0201  163.5999 C   0  0  0  0  0  0  0  0  0  0  0  0
  133.3740  138.6926  164.7547 C   0  0  0  0  0  0  0  0  0  0  0  0
  133.6205  139.3791  165.9274 C   0  0  0  0  0  0  0  0  0  0  0  0
  134.5557  140.4003  165.9495 C   0  0  0  0  0  0  0  0  0  0  0  0
  134.7918  141.0741  167.0965 F   0  0  0  0  0  0  0  0  0  0  0  0
  135.2488  140.7318  164.7974 C   0  0  0  0  0  0  0  0  0  0  0  0
  135.0085  140.0444  163.6240 C   0  0  0  0  0  0  0  0  0  0  0  0
  132.9461  137.3089  162.2530 C   0  0  0  0  0  0  0  0  0  0  0  0
  133.0111  136.9041  160.9492 C   0  0  0  0  0  0  0  0  0  0  0  0
  132.2198  135.8190  160.3298 C   0  0  0  0  0  0  0  0  0  0  0  0
  130.8966  135.8914  160.3113 C   0  0  0  0  0  0  0  0  0  0  0  0
  130.0905  134.7887  159.6748 C   0  0  2  0  0  0  0  0  0  0  0  0
  130.2955  133.8477  160.1852 H   0  0  0  0  0  0  0  0  0  0  0  0
  130.4583  134.6681  158.2618 N   0  0  0  0  0  0  0  0  0  0  0  0
  130.3774  133.4401  157.6278 C   0  0  0  0  0  0  0  0  0  0  0  0
  129.9675  132.2768  158.2027 N   0  0  0  0  0  0  0  0  0  0  0  0
  129.6822  132.1597  159.1224 H   0  0  0  0  0  0  0  0  0  0  0  0
  130.0330  131.2983  157.2392 C   0  0  0  0  0  0  0  0  0  0  0  0
  130.4805  131.8921  156.1055 C   0  0  0  0  0  0  0  0  0  0  0  0
  130.7091  131.2230  154.8013 C   0  0  0  0  0  0  0  0  0  0  0  0
  130.0061  131.6378  153.6712 C   0  0  0  0  0  0  0  0  0  0  0  0
  130.2240  131.0179  152.4589 C   0  0  0  0  0  0  0  0  0  0  0  0
  131.1353  129.9727  152.3655 C   0  0  0  0  0  0  0  0  0  0  0  0
  131.3498  129.3428  151.1373 N   0  0  0  0  0  0  0  0  0  0  0  0
  131.8335  129.5541  153.4920 C   0  0  0  0  0  0  0  0  0  0  0  0
  131.6230  130.1747  154.7051 C   0  0  0  0  0  0  0  0  0  0  0  0
  130.6776  133.2073  156.3732 N   0  0  0  0  0  0  0  0  0  0  0  0
  130.9927  133.8694  155.7382 H   0  0  0  0  0  0  0  0  0  0  0  0
  128.6226  135.1111  159.7861 C   0  0  0  0  0  0  0  0  0  0  0  0
  127.8876  135.8044  158.8860 C   0  0  0  0  0  0  0  0  0  0  0  0
  126.5763  135.8789  159.3673 C   0  0  0  0  0  0  0  0  0  0  0  0
  126.5260  135.2527  160.5150 N   0  0  0  0  0  0  0  0  0  0  0  0
  127.8043  134.7549  160.7984 N   0  0  0  0  0  0  0  0  0  0  0  0
  128.1862  133.9862  161.9856 C   0  0  0  0  0  0  0  0  0  0  0  0
  133.7485  138.2608  158.2554 H   0  0  0  0  0  0  0  0  0  0  0  0
  135.4229  137.9132  158.7494 H   0  0  0  0  0  0  0  0  0  0  0  0
  134.2685  136.5786  158.5159 H   0  0  0  0  0  0  0  0  0  0  0  0
  132.6414  137.8994  164.7368 H   0  0  0  0  0  0  0  0  0  0  0  0
  133.0806  139.1222  166.8268 H   0  0  0  0  0  0  0  0  0  0  0  0
  135.9776  141.5287  164.8165 H   0  0  0  0  0  0  0  0  0  0  0  0
  135.5493  140.3033  162.7257 H   0  0  0  0  0  0  0  0  0  0  0  0
  132.3073  136.8943  163.0188 H   0  0  0  0  0  0  0  0  0  0  0  0
  132.7203  134.9697  159.8888 H   0  0  0  0  0  0  0  0  0  0  0  0
  130.3961  136.7407  160.7524 H   0  0  0  0  0  0  0  0  0  0  0  0
  130.7585  135.4489  157.7704 H   0  0  0  0  0  0  0  0  0  0  0  0
  129.7771  130.2562  157.3620 H   0  0  0  0  0  0  0  0  0  0  0  0
  129.2944  132.4468  153.7443 H   0  0  0  0  0  0  0  0  0  0  0  0
  129.6829  131.3419  151.5822 H   0  0  0  0  0  0  0  0  0  0  0  0
  131.9864  128.6131  151.0715 H   0  0  0  0  0  0  0  0  0  0  0  0
  130.8633  129.6341  150.3509 H   0  0  0  0  0  0  0  0  0  0  0  0
  132.5411  128.7416  153.4171 H   0  0  0  0  0  0  0  0  0  0  0  0
  132.1659  129.8494  155.5801 H   0  0  0  0  0  0  0  0  0  0  0  0
  128.2495  136.2261  157.9600 H   0  0  0  0  0  0  0  0  0  0  0  0
  125.7486  136.3691  158.8764 H   0  0  0  0  0  0  0  0  0  0  0  0
  128.5095  134.6685  162.7717 H   0  0  0  0  0  0  0  0  0  0  0  0
  127.3306  133.4084  162.3351 H   0  0  0  0  0  0  0  0  0  0  0  0
  129.0029  133.3097  161.7333 H   0  0  0  0  0  0  0  0  0  0  0  0
  1  2  1  0
  1 39  1  0
  1 40  1  0
  1 41  1  0
  2 13  1  0
  2  3  2  0
  3  4  1  0
  4  5  1  0
  4 12  1  0
  5 11  1  0
  5  6  2  0
  6  7  1  0
  6 42  1  0
  7  8  2  0
  7 43  1  0
  8  9  1  0
  8 10  1  0
 10 11  2  0
 10 44  1  0
 11 45  1  0
 12 13  2  0
 12 46  1  0
 13 14  1  0
 14 15  2  0
 14 47  1  0
 15 16  1  0
 15 48  1  0
 16 17  1  1
 16 18  1  0
 16 33  1  0
 18 49  1  0
 19 18  1  0
 19 31  2  0
 19 20  1  0
 20 21  1  0
 20 22  1  0
 22 23  2  0
 22 50  1  0
 23 24  1  0
 23 31  1  0
 24 30  1  0
 24 25  2  0
 25 26  1  0
 25 51  1  0
 26 27  2  0
 26 52  1  0
 27 28  1  0
 27 29  1  0
 28 53  1  0
 28 54  1  0
 29 30  2  0
 29 55  1  0
 30 56  1  0
 31 32  1  0
 33 37  1  0
 33 34  2  0
 34 35  1  0
 34 57  1  0
 35 36  2  0
 35 58  1  0
 36 37  1  0
 37 38  1  0
 38 59  1  0
 38 60  1  0
 38 61  1  0
M  CHG  1  31   1
M  END
>  <DOCK_score>  (1) 
-59.733418

>  <SMILES>  (1) 
Cc1nn(-c2ccc(F)cc2)cc1C=C[C@H](Nc1[nH]cc(-c2ccc(N)cc2)[nH+]1)c1ccnn1C

$$$$
