ClCc1c(OCc2ccccc2)cccc1N1CC[NH+](C(c2ccccc2)c2ccccc2)CC1
     RDKit          3D

 67 71  0  0  0  0  0  0  0  0999 V2000
  132.1322  140.5105  163.4104 Cl  0  0  0  0  0  0  0  0  0  0  0  0
  133.5761  139.5199  162.9806 C   0  0  0  0  0  0  0  0  0  0  0  0
  134.0086  139.8461  161.5743 C   0  0  0  0  0  0  0  0  0  0  0  0
  134.9259  140.8602  161.3476 C   0  0  0  0  0  0  0  0  0  0  0  0
  135.4365  141.5616  162.3936 O   0  0  0  0  0  0  0  0  0  0  0  0
  136.6324  141.0570  162.9911 C   0  0  0  0  0  0  0  0  0  0  0  0
  136.6581  141.4255  164.4521 C   0  0  0  0  0  0  0  0  0  0  0  0
  137.2395  142.6130  164.8554 C   0  0  0  0  0  0  0  0  0  0  0  0
  137.2588  142.9533  166.1951 C   0  0  0  0  0  0  0  0  0  0  0  0
  136.7060  142.1010  167.1325 C   0  0  0  0  0  0  0  0  0  0  0  0
  136.1293  140.9110  166.7299 C   0  0  0  0  0  0  0  0  0  0  0  0
  136.1053  140.5732  165.3897 C   0  0  0  0  0  0  0  0  0  0  0  0
  135.3224  141.1591  160.0517 C   0  0  0  0  0  0  0  0  0  0  0  0
  134.8038  140.4471  158.9866 C   0  0  0  0  0  0  0  0  0  0  0  0
  133.8898  139.4356  159.2082 C   0  0  0  0  0  0  0  0  0  0  0  0
  133.4891  139.1317  160.5037 C   0  0  0  0  0  0  0  0  0  0  0  0
  132.5646  138.1091  160.7280 N   0  0  0  0  0  0  0  0  0  0  0  0
  133.1059  136.8084  160.3093 C   0  0  0  0  0  0  0  0  0  0  0  0
  132.0885  135.7101  160.6259 C   0  0  0  0  0  0  0  0  0  0  0  0
  130.8318  135.9876  159.9180 N   0  0  0  0  0  0  0  0  0  0  0  0
  131.0060  136.0220  158.9247 H   0  0  0  0  0  0  0  0  0  0  0  0
  129.8614  134.9236  160.2079 C   0  0  0  0  0  0  0  0  0  0  0  0
  128.5720  135.2081  159.4817 C   0  0  0  0  0  0  0  0  0  0  0  0
  127.3703  134.7773  160.0121 C   0  0  0  0  0  0  0  0  0  0  0  0
  126.1872  135.0426  159.3483 C   0  0  0  0  0  0  0  0  0  0  0  0
  126.2062  135.7295  158.1495 C   0  0  0  0  0  0  0  0  0  0  0  0
  127.4086  136.1558  157.6159 C   0  0  0  0  0  0  0  0  0  0  0  0
  128.5914  135.8950  158.2822 C   0  0  0  0  0  0  0  0  0  0  0  0
  130.4153  133.5996  159.7480 C   0  0  0  0  0  0  0  0  0  0  0  0
  130.1640  133.1537  158.4639 C   0  0  0  0  0  0  0  0  0  0  0  0
  130.6762  131.9417  158.0405 C   0  0  0  0  0  0  0  0  0  0  0  0
  131.4311  131.1705  158.9044 C   0  0  0  0  0  0  0  0  0  0  0  0
  131.6781  131.6141  160.1903 C   0  0  0  0  0  0  0  0  0  0  0  0
  131.1703  132.8286  160.6120 C   0  0  0  0  0  0  0  0  0  0  0  0
  130.2909  137.2782  160.3647 C   0  0  0  0  0  0  0  0  0  0  0  0
  131.2932  138.3895  160.0459 C   0  0  0  0  0  0  0  0  0  0  0  0
  133.3233  138.4617  163.0466 H   0  0  0  0  0  0  0  0  0  0  0  0
  134.3888  139.7432  163.6718 H   0  0  0  0  0  0  0  0  0  0  0  0
  136.6597  139.9722  162.8895 H   0  0  0  0  0  0  0  0  0  0  0  0
  137.4990  141.4906  162.4918 H   0  0  0  0  0  0  0  0  0  0  0  0
  137.6754  143.2768  164.1233 H   0  0  0  0  0  0  0  0  0  0  0  0
  137.7097  143.8828  166.5098 H   0  0  0  0  0  0  0  0  0  0  0  0
  136.7250  142.3647  168.1797 H   0  0  0  0  0  0  0  0  0  0  0  0
  135.6978  140.2449  167.4624 H   0  0  0  0  0  0  0  0  0  0  0  0
  135.6551  139.6433  165.0751 H   0  0  0  0  0  0  0  0  0  0  0  0
  136.0375  141.9490  159.8752 H   0  0  0  0  0  0  0  0  0  0  0  0
  135.1142  140.6818  157.9792 H   0  0  0  0  0  0  0  0  0  0  0  0
  133.4830  138.8835  158.3739 H   0  0  0  0  0  0  0  0  0  0  0  0
  133.3021  136.8243  159.2372 H   0  0  0  0  0  0  0  0  0  0  0  0
  134.0336  136.6107  160.8463 H   0  0  0  0  0  0  0  0  0  0  0  0
  131.9028  135.6855  161.6997 H   0  0  0  0  0  0  0  0  0  0  0  0
  132.4821  134.7462  160.3031 H   0  0  0  0  0  0  0  0  0  0  0  0
  129.6735  134.8858  161.2809 H   0  0  0  0  0  0  0  0  0  0  0  0
  127.3556  134.2368  160.9470 H   0  0  0  0  0  0  0  0  0  0  0  0
  125.2479  134.7093  159.7646 H   0  0  0  0  0  0  0  0  0  0  0  0
  125.2825  135.9329  157.6281 H   0  0  0  0  0  0  0  0  0  0  0  0
  127.4238  136.6921  156.6786 H   0  0  0  0  0  0  0  0  0  0  0  0
  129.5307  136.2277  157.8657 H   0  0  0  0  0  0  0  0  0  0  0  0
  129.5705  133.7540  157.7903 H   0  0  0  0  0  0  0  0  0  0  0  0
  130.4829  131.5950  157.0360 H   0  0  0  0  0  0  0  0  0  0  0  0
  131.8275  130.2215  158.5751 H   0  0  0  0  0  0  0  0  0  0  0  0
  132.2675  131.0115  160.8654 H   0  0  0  0  0  0  0  0  0  0  0  0
  131.3630  133.1749  161.6166 H   0  0  0  0  0  0  0  0  0  0  0  0
  130.1143  137.2455  161.4399 H   0  0  0  0  0  0  0  0  0  0  0  0
  129.3518  137.4768  159.8483 H   0  0  0  0  0  0  0  0  0  0  0  0
  130.8986  139.3453  160.3907 H   0  0  0  0  0  0  0  0  0  0  0  0
  131.4597  138.4314  158.9695 H   0  0  0  0  0  0  0  0  0  0  0  0
  1  2  1  0
  2  3  1  0
  2 37  1  0
  2 38  1  0
  3 16  2  0
  3  4  1  0
  4  5  1  0
  4 13  2  0
  5  6  1  0
  6  7  1  0
  6 39  1  0
  6 40  1  0
  7 12  1  0
  7  8  2  0
  8  9  1  0
  8 41  1  0
  9 10  2  0
  9 42  1  0
 10 11  1  0
 10 43  1  0
 11 12  2  0
 11 44  1  0
 12 45  1  0
 13 14  1  0
 13 46  1  0
 14 15  2  0
 14 47  1  0
 15 16  1  0
 15 48  1  0
 16 17  1  0
 17 36  1  0
 17 18  1  0
 18 19  1  0
 18 49  1  0
 18 50  1  0
 19 20  1  0
 19 51  1  0
 19 52  1  0
 20 21  1  0
 20 22  1  0
 20 35  1  0
 22 23  1  0
 22 29  1  0
 22 53  1  0
 23 28  1  0
 23 24  2  0
 24 25  1  0
 24 54  1  0
 25 26  2  0
 25 55  1  0
 26 27  1  0
 26 56  1  0
 27 28  2  0
 27 57  1  0
 28 58  1  0
 29 34  1  0
 29 30  2  0
 30 31  1  0
 30 59  1  0
 31 32  2  0
 31 60  1  0
 32 33  1  0
 32 61  1  0
 33 34  2  0
 33 62  1  0
 34 63  1  0
 35 36  1  0
 35 64  1  0
 35 65  1  0
 36 66  1  0
 36 67  1  0
M  CHG  1  20   1
M  END
>  <DOCK_score>  (1) 
-58.088894

>  <SMILES>  (1) 
ClCc1c(OCc2ccccc2)cccc1N1CC[NH+](C(c2ccccc2)c2ccccc2)CC1

$$$$
