O[C@H]1C[C@@H]([NH2+]Cc2c[nH]nc2-c2ccc(N[C@H]3C[C@@H](F)[C@@H](F)C3)o2)C1
     RDKit          3D

 48 51  0  0  1  0  0  0  0  0999 V2000
  133.9700  140.3328  159.8787 O   0  0  0  0  0  0  0  0  0  0  0  0
  133.3842  139.3999  160.7891 C   0  0  1  0  0  0  0  0  0  0  0  0
  133.2798  139.8010  161.7973 H   0  0  0  0  0  0  0  0  0  0  0  0
  132.1028  138.7354  160.2539 C   0  0  0  0  0  0  0  0  0  0  0  0
  132.6138  137.4285  160.8828 C   0  0  1  0  0  0  0  0  0  0  0  0
  132.2980  137.2887  161.9165 H   0  0  0  0  0  0  0  0  0  0  0  0
  132.3778  136.2426  160.0487 N   0  0  0  0  0  0  0  0  0  0  0  0
  132.9993  135.5010  160.3348 H   0  0  0  0  0  0  0  0  0  0  0  0
  132.5503  136.4718  159.0815 H   0  0  0  0  0  0  0  0  0  0  0  0
  130.9851  135.8023  160.2066 C   0  0  0  0  0  0  0  0  0  0  0  0
  130.7428  134.5856  159.3510 C   0  0  0  0  0  0  0  0  0  0  0  0
  131.6502  133.9787  158.5565 C   0  0  0  0  0  0  0  0  0  0  0  0
  131.0470  132.9281  157.9591 N   0  0  0  0  0  0  0  0  0  0  0  0
  131.4627  132.3132  157.3345 H   0  0  0  0  0  0  0  0  0  0  0  0
  129.7192  132.8764  158.4020 N   0  0  0  0  0  0  0  0  0  0  0  0
  129.5275  133.8778  159.2382 C   0  0  0  0  0  0  0  0  0  0  0  0
  128.2661  134.1981  159.9374 C   0  0  0  0  0  0  0  0  0  0  0  0
  127.0977  133.5130  159.8256 C   0  0  0  0  0  0  0  0  0  0  0  0
  126.1657  134.1557  160.6643 C   0  0  0  0  0  0  0  0  0  0  0  0
  126.8070  135.2041  161.2381 C   0  0  0  0  0  0  0  0  0  0  0  0
  126.2473  136.1056  162.1361 N   0  0  0  0  0  0  0  0  0  0  0  0
  127.0866  136.7423  163.1541 C   0  0  1  0  0  0  0  0  0  0  0  0
  127.5375  135.9896  163.8007 H   0  0  0  0  0  0  0  0  0  0  0  0
  128.1798  137.6139  162.4876 C   0  0  0  0  0  0  0  0  0  0  0  0
  128.5336  138.6298  163.6020 C   0  0  1  0  0  0  0  0  0  0  0  0
  129.2202  138.1832  164.3213 H   0  0  0  0  0  0  0  0  0  0  0  0
  129.0875  139.7896  163.0496 F   0  0  0  0  0  0  0  0  0  0  0  0
  127.1796  138.9439  164.2713 C   0  0  1  0  0  0  0  0  0  0  0  0
  127.3137  139.0647  165.3462 H   0  0  0  0  0  0  0  0  0  0  0  0
  126.6323  140.1083  163.7221 F   0  0  0  0  0  0  0  0  0  0  0  0
  126.2596  137.7438  163.9865 C   0  0  0  0  0  0  0  0  0  0  0  0
  128.0764  135.2212  160.7971 O   0  0  0  0  0  0  0  0  0  0  0  0
  134.0323  138.0061  160.7448 C   0  0  0  0  0  0  0  0  0  0  0  0
  133.9157  140.0644  158.9513 H   0  0  0  0  0  0  0  0  0  0  0  0
  132.0488  138.7045  159.1657 H   0  0  0  0  0  0  0  0  0  0  0  0
  131.1894  139.1131  160.7135 H   0  0  0  0  0  0  0  0  0  0  0  0
  130.3137  136.6033  159.8976 H   0  0  0  0  0  0  0  0  0  0  0  0
  130.7987  135.5546  161.2516 H   0  0  0  0  0  0  0  0  0  0  0  0
  132.6786  134.2801  158.4225 H   0  0  0  0  0  0  0  0  0  0  0  0
  126.9190  132.6406  159.2145 H   0  0  0  0  0  0  0  0  0  0  0  0
  125.1358  133.8696  160.8188 H   0  0  0  0  0  0  0  0  0  0  0  0
  125.3009  136.3129  162.0885 H   0  0  0  0  0  0  0  0  0  0  0  0
  129.0485  137.0102  162.2253 H   0  0  0  0  0  0  0  0  0  0  0  0
  127.7844  138.1254  161.6101 H   0  0  0  0  0  0  0  0  0  0  0  0
  125.3866  138.0687  163.4203 H   0  0  0  0  0  0  0  0  0  0  0  0
  125.9464  137.2820  164.9229 H   0  0  0  0  0  0  0  0  0  0  0  0
  134.6745  137.7958  161.6000 H   0  0  0  0  0  0  0  0  0  0  0  0
  134.5070  137.7753  159.7909 H   0  0  0  0  0  0  0  0  0  0  0  0
  1  2  1  0
  1 34  1  0
  2  3  1  1
  2 33  1  0
  2  4  1  0
  4  5  1  0
  4 35  1  0
  4 36  1  0
  5  6  1  1
  5  7  1  0
  5 33  1  0
  7  8  1  0
  7  9  1  0
  7 10  1  0
 10 11  1  0
 10 37  1  0
 10 38  1  0
 11 16  1  0
 11 12  2  0
 12 13  1  0
 12 39  1  0
 13 14  1  0
 13 15  1  0
 15 16  2  0
 16 17  1  0
 17 32  1  0
 17 18  2  0
 18 19  1  0
 18 40  1  0
 19 20  2  0
 19 41  1  0
 20 21  1  0
 20 32  1  0
 21 22  1  0
 21 42  1  0
 22 23  1  1
 22 31  1  0
 22 24  1  0
 24 25  1  0
 24 43  1  0
 24 44  1  0
 25 26  1  1
 25 27  1  0
 25 28  1  0
 28 29  1  1
 28 30  1  0
 28 31  1  0
 31 45  1  0
 31 46  1  0
 33 47  1  0
 33 48  1  0
M  CHG  1   7   1
M  END
>  <DOCK_score>  (1) 
-43.20475

>  <SMILES>  (1) 
O[C@H]1C[C@@H]([NH2+]Cc2c[nH]nc2-c2ccc(N[C@H]3C[C@@H](F)[C@@H](F)C3)o2)C1

$$$$
