C=CCC[C@@H](C)c1c[nH]c(Nc2cccc(NC=O)c2)[nH+]1
     RDKit          3D

 42 43  0  0  1  0  0  0  0  0999 V2000
  129.8125  130.1619  152.4793 C   0  0  0  0  0  0  0  0  0  0  0  0
  130.1263  131.4148  152.6976 C   0  0  0  0  0  0  0  0  0  0  0  0
  131.4284  131.7585  153.3743 C   0  0  0  0  0  0  0  0  0  0  0  0
  131.1443  132.5238  154.6682 C   0  0  0  0  0  0  0  0  0  0  0  0
  130.2993  131.6534  155.6006 C   0  0  1  0  0  0  0  0  0  0  0  0
  129.3576  131.4048  155.1113 H   0  0  0  0  0  0  0  0  0  0  0  0
  131.0602  130.3664  155.9257 C   0  0  0  0  0  0  0  0  0  0  0  0
  130.0196  132.4071  156.8752 C   0  0  0  0  0  0  0  0  0  0  0  0
  129.3068  131.9505  157.9192 C   0  0  0  0  0  0  0  0  0  0  0  0
  129.3018  132.9471  158.8682 N   0  0  0  0  0  0  0  0  0  0  0  0
  128.8716  132.9145  159.7369 H   0  0  0  0  0  0  0  0  0  0  0  0
  130.0127  133.9880  158.3559 C   0  0  0  0  0  0  0  0  0  0  0  0
  130.2498  135.1975  158.9897 N   0  0  0  0  0  0  0  0  0  0  0  0
  129.3172  135.7047  159.8988 C   0  0  0  0  0  0  0  0  0  0  0  0
  129.7392  136.4993  160.9582 C   0  0  0  0  0  0  0  0  0  0  0  0
  128.8180  137.0003  161.8571 C   0  0  0  0  0  0  0  0  0  0  0  0
  127.4752  136.7093  161.7097 C   0  0  0  0  0  0  0  0  0  0  0  0
  127.0462  135.9201  160.6501 C   0  0  0  0  0  0  0  0  0  0  0  0
  125.6857  135.6302  160.4987 N   0  0  0  0  0  0  0  0  0  0  0  0
  125.3031  134.4710  159.9276 C   0  0  0  0  0  0  0  0  0  0  0  0
  126.1380  133.6789  159.5451 O   0  0  0  0  0  0  0  0  0  0  0  0
  127.9688  135.4150  159.7451 C   0  0  0  0  0  0  0  0  0  0  0  0
  130.4404  133.6503  157.1624 N   0  0  0  0  0  0  0  0  0  0  0  0
  130.9758  134.2103  156.5789 H   0  0  0  0  0  0  0  0  0  0  0  0
  128.8794  129.9158  151.9944 H   0  0  0  0  0  0  0  0  0  0  0  0
  130.4867  129.3752  152.7842 H   0  0  0  0  0  0  0  0  0  0  0  0
  129.4521  132.2015  152.3928 H   0  0  0  0  0  0  0  0  0  0  0  0
  132.0304  132.3786  152.7100 H   0  0  0  0  0  0  0  0  0  0  0  0
  131.9706  130.8417  153.6059 H   0  0  0  0  0  0  0  0  0  0  0  0
  130.6021  133.4406  154.4366 H   0  0  0  0  0  0  0  0  0  0  0  0
  132.0860  132.7723  155.1577 H   0  0  0  0  0  0  0  0  0  0  0  0
  131.2626  129.8212  155.0037 H   0  0  0  0  0  0  0  0  0  0  0  0
  132.0020  130.6149  156.4150 H   0  0  0  0  0  0  0  0  0  0  0  0
  130.4582  129.7463  156.5899 H   0  0  0  0  0  0  0  0  0  0  0  0
  128.8323  130.9838  157.9999 H   0  0  0  0  0  0  0  0  0  0  0  0
  131.0628  135.6920  158.8024 H   0  0  0  0  0  0  0  0  0  0  0  0
  130.7883  136.7256  161.0783 H   0  0  0  0  0  0  0  0  0  0  0  0
  129.1485  137.6173  162.6798 H   0  0  0  0  0  0  0  0  0  0  0  0
  126.7580  137.0989  162.4170 H   0  0  0  0  0  0  0  0  0  0  0  0
  125.0178  136.2639  160.8047 H   0  0  0  0  0  0  0  0  0  0  0  0
  124.2529  134.2474  159.8108 H   0  0  0  0  0  0  0  0  0  0  0  0
  127.6381  134.7982  158.9226 H   0  0  0  0  0  0  0  0  0  0  0  0
  1  2  2  0
  1 25  1  0
  1 26  1  0
  2  3  1  0
  2 27  1  0
  3  4  1  0
  3 28  1  0
  3 29  1  0
  4  5  1  0
  4 30  1  0
  4 31  1  0
  5  6  1  6
  5  7  1  0
  5  8  1  0
  7 32  1  0
  7 33  1  0
  7 34  1  0
  8 23  1  0
  8  9  2  0
  9 10  1  0
  9 35  1  0
 10 11  1  0
 10 12  1  0
 12 13  1  0
 12 23  2  0
 13 14  1  0
 13 36  1  0
 14 22  1  0
 14 15  2  0
 15 16  1  0
 15 37  1  0
 16 17  2  0
 16 38  1  0
 17 18  1  0
 17 39  1  0
 18 19  1  0
 18 22  2  0
 19 20  1  0
 19 40  1  0
 20 21  2  0
 20 41  1  0
 22 42  1  0
 23 24  1  0
M  CHG  1  23   1
M  END
>  <DOCK_score>  (1) 
-48.817226

>  <SMILES>  (1) 
C=CCC[C@@H](C)c1c[nH]c(Nc2cccc(NC=O)c2)[nH+]1

$$$$
