CCc1ccc(-c2c[nH]c(N[C@@H](Cc3cnnn3C)C3=CCCC3)[nH+]2)cc1
     RDKit          3D

 54 57  0  0  1  0  0  0  0  0999 V2000
  129.7963  129.3307  151.3509 C   0  0  0  0  0  0  0  0  0  0  0  0
  131.1578  129.7464  151.9117 C   0  0  0  0  0  0  0  0  0  0  0  0
  130.9642  130.4519  153.2292 C   0  0  0  0  0  0  0  0  0  0  0  0
  130.9596  129.7247  154.4061 C   0  0  0  0  0  0  0  0  0  0  0  0
  130.7875  130.3662  155.6158 C   0  0  0  0  0  0  0  0  0  0  0  0
  130.6075  131.7478  155.6496 C   0  0  0  0  0  0  0  0  0  0  0  0
  130.4170  132.4422  156.9464 C   0  0  0  0  0  0  0  0  0  0  0  0
  129.8487  131.9139  158.0586 C   0  0  0  0  0  0  0  0  0  0  0  0
  129.8746  132.8923  159.0226 N   0  0  0  0  0  0  0  0  0  0  0  0
  129.5385  132.8145  159.9292 H   0  0  0  0  0  0  0  0  0  0  0  0
  130.4586  133.9908  158.4708 C   0  0  0  0  0  0  0  0  0  0  0  0
  130.6752  135.1975  159.1137 N   0  0  0  0  0  0  0  0  0  0  0  0
  130.2625  135.3687  160.5089 C   0  0  1  0  0  0  0  0  0  0  0  0
  130.7810  134.6409  161.1331 H   0  0  0  0  0  0  0  0  0  0  0  0
  130.6142  136.7829  160.9750 C   0  0  0  0  0  0  0  0  0  0  0  0
  132.0770  136.8449  161.3319 C   0  0  0  0  0  0  0  0  0  0  0  0
  133.1023  137.1613  160.5068 C   0  0  0  0  0  0  0  0  0  0  0  0
  134.2173  137.0917  161.2426 N   0  0  0  0  0  0  0  0  0  0  0  0
  133.9033  136.7546  162.4437 N   0  0  0  0  0  0  0  0  0  0  0  0
  132.6291  136.6014  162.5431 N   0  0  0  0  0  0  0  0  0  0  0  0
  131.9019  136.2246  163.7577 C   0  0  0  0  0  0  0  0  0  0  0  0
  128.7746  135.1579  160.6221 C   0  0  0  0  0  0  0  0  0  0  0  0
  128.2130  134.2391  161.3598 C   0  0  0  0  0  0  0  0  0  0  0  0
  126.7071  134.2981  161.2496 C   0  0  0  0  0  0  0  0  0  0  0  0
  126.4385  135.1475  159.9856 C   0  0  0  0  0  0  0  0  0  0  0  0
  127.7367  135.9866  159.9015 C   0  0  0  0  0  0  0  0  0  0  0  0
  130.7858  133.7163  157.2317 N   0  0  0  0  0  0  0  0  0  0  0  0
  131.2206  134.3272  156.6163 H   0  0  0  0  0  0  0  0  0  0  0  0
  130.6078  132.4747  154.4604 C   0  0  0  0  0  0  0  0  0  0  0  0
  130.7859  131.8234  153.2568 C   0  0  0  0  0  0  0  0  0  0  0  0
  129.9364  128.8204  150.3980 H   0  0  0  0  0  0  0  0  0  0  0  0
  129.3036  128.6589  152.0538 H   0  0  0  0  0  0  0  0  0  0  0  0
  129.1791  130.2165  151.2015 H   0  0  0  0  0  0  0  0  0  0  0  0
  131.7751  128.8605  152.0613 H   0  0  0  0  0  0  0  0  0  0  0  0
  131.6506  130.4182  151.2088 H   0  0  0  0  0  0  0  0  0  0  0  0
  131.0947  128.6535  154.3782 H   0  0  0  0  0  0  0  0  0  0  0  0
  130.7886  129.7981  156.5343 H   0  0  0  0  0  0  0  0  0  0  0  0
  129.4515  130.9154  158.1659 H   0  0  0  0  0  0  0  0  0  0  0  0
  131.1002  135.9297  158.6405 H   0  0  0  0  0  0  0  0  0  0  0  0
  130.4052  137.4920  160.1740 H   0  0  0  0  0  0  0  0  0  0  0  0
  130.0156  137.0364  161.8500 H   0  0  0  0  0  0  0  0  0  0  0  0
  133.0336  137.4193  159.4604 H   0  0  0  0  0  0  0  0  0  0  0  0
  131.8243  135.1388  163.8126 H   0  0  0  0  0  0  0  0  0  0  0  0
  132.4376  136.5952  164.6316 H   0  0  0  0  0  0  0  0  0  0  0  0
  130.9027  136.6594  163.7327 H   0  0  0  0  0  0  0  0  0  0  0  0
  128.7536  133.5301  161.9692 H   0  0  0  0  0  0  0  0  0  0  0  0
  126.2957  133.2960  161.1280 H   0  0  0  0  0  0  0  0  0  0  0  0
  126.2805  134.7787  162.1299 H   0  0  0  0  0  0  0  0  0  0  0  0
  126.3197  134.5142  159.1065 H   0  0  0  0  0  0  0  0  0  0  0  0
  125.5687  135.7900  160.1235 H   0  0  0  0  0  0  0  0  0  0  0  0
  127.6043  136.9467  160.4001 H   0  0  0  0  0  0  0  0  0  0  0  0
  128.0248  136.1349  158.8607 H   0  0  0  0  0  0  0  0  0  0  0  0
  130.4685  133.5454  154.4807 H   0  0  0  0  0  0  0  0  0  0  0  0
  130.7861  132.3856  152.3346 H   0  0  0  0  0  0  0  0  0  0  0  0
  1  2  1  0
  1 31  1  0
  1 32  1  0
  1 33  1  0
  2  3  1  0
  2 34  1  0
  2 35  1  0
  3 30  2  0
  3  4  1  0
  4  5  2  0
  4 36  1  0
  5  6  1  0
  5 37  1  0
  6  7  1  0
  6 29  2  0
  7 27  1  0
  7  8  2  0
  8  9  1  0
  8 38  1  0
  9 10  1  0
  9 11  1  0
 11 12  1  0
 11 27  2  0
 12 13  1  0
 12 39  1  0
 13 14  1  1
 13 15  1  0
 13 22  1  0
 15 16  1  0
 15 40  1  0
 15 41  1  0
 16 20  1  0
 16 17  2  0
 17 18  1  0
 17 42  1  0
 18 19  2  0
 19 20  1  0
 20 21  1  0
 21 43  1  0
 21 44  1  0
 21 45  1  0
 22 26  1  0
 22 23  2  0
 23 24  1  0
 23 46  1  0
 24 25  1  0
 24 47  1  0
 24 48  1  0
 25 26  1  0
 25 49  1  0
 25 50  1  0
 26 51  1  0
 26 52  1  0
 27 28  1  0
 29 30  1  0
 29 53  1  0
 30 54  1  0
M  CHG  1  27   1
M  END
>  <DOCK_score>  (1) 
-56.212948

>  <SMILES>  (1) 
CCc1ccc(-c2c[nH]c(N[C@@H](Cc3cnnn3C)C3=CCCC3)[nH+]2)cc1

$$$$
