O=C1CC[C@H](Nc2ccc3c(c2)[C@H]([NH+]2CCCC2Cc2ccccn2)c2cc(O)ccc2-3)CN1
     RDKit          3D

 65 70  0  0  1  0  0  0  0  0999 V2000
  137.1665  141.3515  161.3748 O   0  0  0  0  0  0  0  0  0  0  0  0
  136.2036  140.6732  161.0856 C   0  0  0  0  0  0  0  0  0  0  0  0
  135.1187  140.5057  162.1104 C   0  0  0  0  0  0  0  0  0  0  0  0
  134.2401  139.3060  161.7474 C   0  0  0  0  0  0  0  0  0  0  0  0
  133.8436  139.4248  160.2708 C   0  0  2  0  0  0  0  0  0  0  0  0
  133.4113  140.4082  160.0863 H   0  0  0  0  0  0  0  0  0  0  0  0
  132.8637  138.3873  159.9401 N   0  0  0  0  0  0  0  0  0  0  0  0
  131.6413  138.3418  160.6129 C   0  0  0  0  0  0  0  0  0  0  0  0
  131.0679  139.5133  161.0943 C   0  0  0  0  0  0  0  0  0  0  0  0
  129.8624  139.4719  161.7598 C   0  0  0  0  0  0  0  0  0  0  0  0
  129.2110  138.2519  161.9524 C   0  0  0  0  0  0  0  0  0  0  0  0
  129.7904  137.0810  161.4673 C   0  0  0  0  0  0  0  0  0  0  0  0
  130.9960  137.1250  160.8022 C   0  0  0  0  0  0  0  0  0  0  0  0
  128.8708  135.9379  161.8205 C   0  0  2  0  0  0  0  0  0  0  0  0
  129.3875  135.2254  162.4637 H   0  0  0  0  0  0  0  0  0  0  0  0
  128.4033  135.2689  160.5991 N   0  0  2  0  0  0  0  0  0  0  0  0
  129.1554  135.1973  159.9304 H   0  0  0  0  0  0  0  0  0  0  0  0
  127.2683  136.0138  160.0122 C   0  0  0  0  0  0  0  0  0  0  0  0
  126.3020  134.9751  159.4132 C   0  0  0  0  0  0  0  0  0  0  0  0
  126.9428  133.6025  159.7218 C   0  0  0  0  0  0  0  0  0  0  0  0
  127.8732  133.9160  160.9204 C   0  0  1  0  0  0  0  0  0  0  0  0
  129.0101  132.8954  161.0029 C   0  0  0  0  0  0  0  0  0  0  0  0
  129.7732  132.8872  159.7035 C   0  0  0  0  0  0  0  0  0  0  0  0
  129.3821  132.0361  158.6869 C   0  0  0  0  0  0  0  0  0  0  0  0
  130.0906  132.0368  157.4953 C   0  0  0  0  0  0  0  0  0  0  0  0
  131.1709  132.8973  157.3702 C   0  0  0  0  0  0  0  0  0  0  0  0
  131.5029  133.7197  158.4299 C   0  0  0  0  0  0  0  0  0  0  0  0
  130.8029  133.6960  159.5474 N   0  0  0  0  0  0  0  0  0  0  0  0
  127.7046  136.5524  162.5552 C   0  0  0  0  0  0  0  0  0  0  0  0
  126.5701  136.0035  163.1117 C   0  0  0  0  0  0  0  0  0  0  0  0
  125.6412  136.8205  163.7428 C   0  0  0  0  0  0  0  0  0  0  0  0
  124.5219  136.2795  164.2914 O   0  0  0  0  0  0  0  0  0  0  0  0
  125.8563  138.1899  163.8128 C   0  0  0  0  0  0  0  0  0  0  0  0
  126.9905  138.7431  163.2577 C   0  0  0  0  0  0  0  0  0  0  0  0
  127.9274  137.9257  162.6220 C   0  0  0  0  0  0  0  0  0  0  0  0
  135.0951  139.2410  159.4115 C   0  0  0  0  0  0  0  0  0  0  0  0
  136.1649  140.1158  159.8748 N   0  0  0  0  0  0  0  0  0  0  0  0
  134.5065  141.4070  162.1403 H   0  0  0  0  0  0  0  0  0  0  0  0
  135.5681  140.3421  163.0899 H   0  0  0  0  0  0  0  0  0  0  0  0
  133.3447  139.3054  162.3689 H   0  0  0  0  0  0  0  0  0  0  0  0
  134.7971  138.3823  161.9046 H   0  0  0  0  0  0  0  0  0  0  0  0
  133.0641  137.7319  159.2536 H   0  0  0  0  0  0  0  0  0  0  0  0
  131.5693  140.4584  160.9465 H   0  0  0  0  0  0  0  0  0  0  0  0
  129.4205  140.3840  162.1325 H   0  0  0  0  0  0  0  0  0  0  0  0
  131.4403  136.2141  160.4288 H   0  0  0  0  0  0  0  0  0  0  0  0
  127.6277  136.6815  159.2292 H   0  0  0  0  0  0  0  0  0  0  0  0
  126.7615  136.5892  160.7869 H   0  0  0  0  0  0  0  0  0  0  0  0
  125.3236  135.0510  159.8876 H   0  0  0  0  0  0  0  0  0  0  0  0
  126.2120  135.1189  158.3365 H   0  0  0  0  0  0  0  0  0  0  0  0
  126.1809  132.8760  160.0046 H   0  0  0  0  0  0  0  0  0  0  0  0
  127.5197  133.2456  158.8687 H   0  0  0  0  0  0  0  0  0  0  0  0
  127.3069  133.9387  161.8514 H   0  0  0  0  0  0  0  0  0  0  0  0
  129.6823  133.1654  161.8174 H   0  0  0  0  0  0  0  0  0  0  0  0
  128.5957  131.9042  161.1872 H   0  0  0  0  0  0  0  0  0  0  0  0
  128.5352  131.3793  158.8190 H   0  0  0  0  0  0  0  0  0  0  0  0
  129.8078  131.3830  156.6836 H   0  0  0  0  0  0  0  0  0  0  0  0
  131.7457  132.9242  156.4563 H   0  0  0  0  0  0  0  0  0  0  0  0
  132.3427  134.3927  158.3404 H   0  0  0  0  0  0  0  0  0  0  0  0
  126.4032  134.9379  163.0570 H   0  0  0  0  0  0  0  0  0  0  0  0
  124.4600  135.3195  164.1926 H   0  0  0  0  0  0  0  0  0  0  0  0
  125.1331  138.8242  164.3039 H   0  0  0  0  0  0  0  0  0  0  0  0
  127.1546  139.8091  163.3148 H   0  0  0  0  0  0  0  0  0  0  0  0
  135.4254  138.2041  159.4730 H   0  0  0  0  0  0  0  0  0  0  0  0
  134.8584  139.4796  158.3745 H   0  0  0  0  0  0  0  0  0  0  0  0
  136.8946  140.3043  159.2641 H   0  0  0  0  0  0  0  0  0  0  0  0
  1  2  2  0
  2 37  1  0
  2  3  1  0
  3  4  1  0
  3 38  1  0
  3 39  1  0
  4  5  1  0
  4 40  1  0
  4 41  1  0
  5  6  1  1
  5  7  1  0
  5 36  1  0
  7  8  1  0
  7 42  1  0
  8 13  1  0
  8  9  2  0
  9 10  1  0
  9 43  1  0
 10 11  2  0
 10 44  1  0
 11 35  1  0
 11 12  1  0
 12 13  2  0
 12 14  1  0
 13 45  1  0
 14 15  1  1
 14 16  1  0
 14 29  1  0
 16 17  1  6
 16 21  1  0
 16 18  1  0
 18 19  1  0
 18 46  1  0
 18 47  1  0
 19 20  1  0
 19 48  1  0
 19 49  1  0
 20 21  1  0
 20 50  1  0
 20 51  1  0
 21 22  1  0
 21 52  1  1
 22 23  1  0
 22 53  1  0
 22 54  1  0
 23 28  1  0
 23 24  2  0
 24 25  1  0
 24 55  1  0
 25 26  2  0
 25 56  1  0
 26 27  1  0
 26 57  1  0
 27 28  2  0
 27 58  1  0
 29 35  2  0
 29 30  1  0
 30 31  2  0
 30 59  1  0
 31 32  1  0
 31 33  1  0
 32 60  1  0
 33 34  2  0
 33 61  1  0
 34 35  1  0
 34 62  1  0
 36 37  1  0
 36 63  1  0
 36 64  1  0
 37 65  1  0
M  CHG  1  16   1
M  END
>  <DOCK_score>  (1) 
-45.366398

>  <SMILES>  (1) 
O=C1CC[C@H](Nc2ccc3c(c2)[C@H]([NH+]2CCCC2Cc2ccccn2)c2cc(O)ccc2-3)CN1

$$$$
