CCc1ccc(C[NH2+]Cc2c[nH]nc2-c2ccc(N[C@@H]3C=CCCC3)o2)cc1
     RDKit          3D

 57 60  0  0  1  0  0  0  0  0999 V2000
  136.2458  139.4827  159.3382 C   0  0  0  0  0  0  0  0  0  0  0  0
  135.1761  140.5505  159.5758 C   0  0  0  0  0  0  0  0  0  0  0  0
  133.8857  139.8871  159.9831 C   0  0  0  0  0  0  0  0  0  0  0  0
  133.6202  139.6540  161.3195 C   0  0  0  0  0  0  0  0  0  0  0  0
  132.4345  139.0497  161.6935 C   0  0  0  0  0  0  0  0  0  0  0  0
  131.5188  138.6691  160.7302 C   0  0  0  0  0  0  0  0  0  0  0  0
  130.2290  138.0048  161.1374 C   0  0  0  0  0  0  0  0  0  0  0  0
  129.9763  136.8500  160.2653 N   0  0  0  0  0  0  0  0  0  0  0  0
  129.1126  136.4052  160.5379 H   0  0  0  0  0  0  0  0  0  0  0  0
  129.9070  137.1605  159.3077 H   0  0  0  0  0  0  0  0  0  0  0  0
  131.0818  135.8908  160.3904 C   0  0  0  0  0  0  0  0  0  0  0  0
  130.8226  134.7062  159.4956 C   0  0  0  0  0  0  0  0  0  0  0  0
  131.7192  134.1182  158.6749 C   0  0  0  0  0  0  0  0  0  0  0  0
  131.1033  133.0921  158.0488 N   0  0  0  0  0  0  0  0  0  0  0  0
  131.5098  132.4931  157.4031 H   0  0  0  0  0  0  0  0  0  0  0  0
  129.7742  133.0459  158.4887 N   0  0  0  0  0  0  0  0  0  0  0  0
  129.5983  134.0177  159.3622 C   0  0  0  0  0  0  0  0  0  0  0  0
  128.3423  134.3302  160.0748 C   0  0  0  0  0  0  0  0  0  0  0  0
  127.1636  133.6676  159.9385 C   0  0  0  0  0  0  0  0  0  0  0  0
  126.2411  134.2946  160.7994 C   0  0  0  0  0  0  0  0  0  0  0  0
  126.8984  135.3110  161.4111 C   0  0  0  0  0  0  0  0  0  0  0  0
  126.3517  136.1893  162.3396 N   0  0  0  0  0  0  0  0  0  0  0  0
  127.1803  137.2467  162.9241 C   0  0  2  0  0  0  0  0  0  0  0  0
  127.8240  137.6692  162.1526 H   0  0  0  0  0  0  0  0  0  0  0  0
  128.0289  136.6665  164.0173 C   0  0  0  0  0  0  0  0  0  0  0  0
  128.2318  137.2402  165.1599 C   0  0  0  0  0  0  0  0  0  0  0  0
  127.6380  138.5606  165.5549 C   0  0  0  0  0  0  0  0  0  0  0  0
  127.1396  139.3064  164.3150 C   0  0  0  0  0  0  0  0  0  0  0  0
  126.2770  138.3468  163.4855 C   0  0  0  0  0  0  0  0  0  0  0  0
  128.1672  135.3264  160.9684 O   0  0  0  0  0  0  0  0  0  0  0  0
  131.7867  138.8975  159.3934 C   0  0  0  0  0  0  0  0  0  0  0  0
  132.9702  139.5065  159.0198 C   0  0  0  0  0  0  0  0  0  0  0  0
  136.4028  138.9153  160.2555 H   0  0  0  0  0  0  0  0  0  0  0  0
  135.9176  138.8094  158.5463 H   0  0  0  0  0  0  0  0  0  0  0  0
  137.1790  139.9626  159.0435 H   0  0  0  0  0  0  0  0  0  0  0  0
  135.0190  141.1178  158.6584 H   0  0  0  0  0  0  0  0  0  0  0  0
  135.5043  141.2237  160.3676 H   0  0  0  0  0  0  0  0  0  0  0  0
  134.3376  139.9473  162.0718 H   0  0  0  0  0  0  0  0  0  0  0  0
  132.2253  138.8711  162.7378 H   0  0  0  0  0  0  0  0  0  0  0  0
  130.3038  137.6694  162.1718 H   0  0  0  0  0  0  0  0  0  0  0  0
  129.4086  138.7165  161.0446 H   0  0  0  0  0  0  0  0  0  0  0  0
  132.0148  136.3712  160.0958 H   0  0  0  0  0  0  0  0  0  0  0  0
  131.1566  135.5554  161.4247 H   0  0  0  0  0  0  0  0  0  0  0  0
  132.7493  134.4151  158.5438 H   0  0  0  0  0  0  0  0  0  0  0  0
  126.9714  132.8216  159.2954 H   0  0  0  0  0  0  0  0  0  0  0  0
  125.2063  134.0202  160.9421 H   0  0  0  0  0  0  0  0  0  0  0  0
  125.4216  136.1019  162.6007 H   0  0  0  0  0  0  0  0  0  0  0  0
  128.5001  135.7111  163.8397 H   0  0  0  0  0  0  0  0  0  0  0  0
  128.8681  136.7375  165.8730 H   0  0  0  0  0  0  0  0  0  0  0  0
  126.8031  138.3922  166.2352 H   0  0  0  0  0  0  0  0  0  0  0  0
  128.3964  139.1626  166.0554 H   0  0  0  0  0  0  0  0  0  0  0  0
  126.5421  140.1657  164.6198 H   0  0  0  0  0  0  0  0  0  0  0  0
  127.9905  139.6431  163.7233 H   0  0  0  0  0  0  0  0  0  0  0  0
  125.8092  138.8911  162.6652 H   0  0  0  0  0  0  0  0  0  0  0  0
  125.5096  137.9029  164.1196 H   0  0  0  0  0  0  0  0  0  0  0  0
  131.0717  138.5999  158.6408 H   0  0  0  0  0  0  0  0  0  0  0  0
  133.1796  139.6845  157.9753 H   0  0  0  0  0  0  0  0  0  0  0  0
  1  2  1  0
  1 33  1  0
  1 34  1  0
  1 35  1  0
  2  3  1  0
  2 36  1  0
  2 37  1  0
  3 32  2  0
  3  4  1  0
  4  5  2  0
  4 38  1  0
  5  6  1  0
  5 39  1  0
  6  7  1  0
  6 31  2  0
  7  8  1  0
  7 40  1  0
  7 41  1  0
  8  9  1  0
  8 10  1  0
  8 11  1  0
 11 12  1  0
 11 42  1  0
 11 43  1  0
 12 17  1  0
 12 13  2  0
 13 14  1  0
 13 44  1  0
 14 15  1  0
 14 16  1  0
 16 17  2  0
 17 18  1  0
 18 30  1  0
 18 19  2  0
 19 20  1  0
 19 45  1  0
 20 21  2  0
 20 46  1  0
 21 22  1  0
 21 30  1  0
 22 23  1  0
 22 47  1  0
 23 24  1  6
 23 29  1  0
 23 25  1  0
 25 26  2  0
 25 48  1  0
 26 27  1  0
 26 49  1  0
 27 28  1  0
 27 50  1  0
 27 51  1  0
 28 29  1  0
 28 52  1  0
 28 53  1  0
 29 54  1  0
 29 55  1  0
 31 32  1  0
 31 56  1  0
 32 57  1  0
M  CHG  1   8   1
M  END
>  <DOCK_score>  (1) 
-41.01849

>  <SMILES>  (1) 
CCc1ccc(C[NH2+]Cc2c[nH]nc2-c2ccc(N[C@@H]3C=CCCC3)o2)cc1

$$$$
