OCC=CC[NH2+]Cc1c[nH]nc1-c1ccc(NCC2CC=CC2)o1
     RDKit          3D

 49 51  0  0  1  0  0  0  0  0999 V2000
  135.4225  137.6807  161.6509 O   0  0  0  0  0  0  0  0  0  0  0  0
  135.2438  138.7990  160.7795 C   0  0  0  0  0  0  0  0  0  0  0  0
  133.8401  138.7893  160.2312 C   0  0  0  0  0  0  0  0  0  0  0  0
  132.8632  138.2817  160.9410 C   0  0  0  0  0  0  0  0  0  0  0  0
  131.4594  138.2721  160.3927 C   0  0  0  0  0  0  0  0  0  0  0  0
  131.2344  137.0277  159.6450 N   0  0  0  0  0  0  0  0  0  0  0  0
  131.8935  136.9692  158.8833 H   0  0  0  0  0  0  0  0  0  0  0  0
  130.2946  137.0213  159.2779 H   0  0  0  0  0  0  0  0  0  0  0  0
  131.4180  135.8781  160.5409 C   0  0  0  0  0  0  0  0  0  0  0  0
  131.1871  134.6017  159.7739 C   0  0  0  0  0  0  0  0  0  0  0  0
  132.1231  133.8967  159.1030 C   0  0  0  0  0  0  0  0  0  0  0  0
  131.5215  132.8194  158.5538 N   0  0  0  0  0  0  0  0  0  0  0  0
  131.9552  132.1375  158.0174 H   0  0  0  0  0  0  0  0  0  0  0  0
  130.1618  132.8603  158.8876 N   0  0  0  0  0  0  0  0  0  0  0  0
  129.9534  133.9339  159.6241 C   0  0  0  0  0  0  0  0  0  0  0  0
  128.6582  134.3612  160.1924 C   0  0  0  0  0  0  0  0  0  0  0  0
  127.4731  133.7112  160.0500 C   0  0  0  0  0  0  0  0  0  0  0  0
  126.5086  134.4633  160.7492 C   0  0  0  0  0  0  0  0  0  0  0  0
  127.1507  135.5324  161.2825 C   0  0  0  0  0  0  0  0  0  0  0  0
  126.5646  136.5311  162.0514 N   0  0  0  0  0  0  0  0  0  0  0  0
  127.3808  137.6333  162.5662 C   0  0  0  0  0  0  0  0  0  0  0  0
  126.4985  138.5872  163.3741 C   0  0  0  0  0  0  0  0  0  0  0  0
  127.2435  139.9072  163.6806 C   0  0  0  0  0  0  0  0  0  0  0  0
  126.8061  140.2794  165.0783 C   0  0  0  0  0  0  0  0  0  0  0  0
  126.2633  139.2608  165.6878 C   0  0  0  0  0  0  0  0  0  0  0  0
  126.2480  138.0394  164.7984 C   0  0  0  0  0  0  0  0  0  0  0  0
  128.4500  135.4608  160.9468 O   0  0  0  0  0  0  0  0  0  0  0  0
  135.2890  136.8236  161.2235 H   0  0  0  0  0  0  0  0  0  0  0  0
  135.9558  138.7358  159.9566 H   0  0  0  0  0  0  0  0  0  0  0  0
  135.4108  139.7222  161.3344 H   0  0  0  0  0  0  0  0  0  0  0  0
  133.6397  139.2008  159.2530 H   0  0  0  0  0  0  0  0  0  0  0  0
  133.0635  137.8703  161.9193 H   0  0  0  0  0  0  0  0  0  0  0  0
  131.3231  139.1251  159.7281 H   0  0  0  0  0  0  0  0  0  0  0  0
  130.7475  138.3353  161.2157 H   0  0  0  0  0  0  0  0  0  0  0  0
  130.7060  135.9414  161.3639 H   0  0  0  0  0  0  0  0  0  0  0  0
  132.4332  135.8852  160.9376 H   0  0  0  0  0  0  0  0  0  0  0  0
  133.1701  134.1490  159.0216 H   0  0  0  0  0  0  0  0  0  0  0  0
  127.3032  132.7945  159.5049 H   0  0  0  0  0  0  0  0  0  0  0  0
  125.4577  134.2325  160.8428 H   0  0  0  0  0  0  0  0  0  0  0  0
  125.6152  136.4981  162.2474 H   0  0  0  0  0  0  0  0  0  0  0  0
  128.1671  137.2348  163.2073 H   0  0  0  0  0  0  0  0  0  0  0  0
  127.8303  138.1727  161.7325 H   0  0  0  0  0  0  0  0  0  0  0  0
  125.5580  138.7789  162.8578 H   0  0  0  0  0  0  0  0  0  0  0  0
  128.3219  139.7507  163.6493 H   0  0  0  0  0  0  0  0  0  0  0  0
  126.9507  140.6819  162.9721 H   0  0  0  0  0  0  0  0  0  0  0  0
  126.9265  141.2597  165.5152 H   0  0  0  0  0  0  0  0  0  0  0  0
  125.8756  139.2877  166.6954 H   0  0  0  0  0  0  0  0  0  0  0  0
  125.2785  137.5443  164.8498 H   0  0  0  0  0  0  0  0  0  0  0  0
  127.0417  137.3492  165.0848 H   0  0  0  0  0  0  0  0  0  0  0  0
  1  2  1  0
  1 28  1  0
  2  3  1  0
  2 29  1  0
  2 30  1  0
  3  4  2  0
  3 31  1  0
  4  5  1  0
  4 32  1  0
  5  6  1  0
  5 33  1  0
  5 34  1  0
  6  7  1  0
  6  8  1  0
  6  9  1  0
  9 10  1  0
  9 35  1  0
  9 36  1  0
 10 15  1  0
 10 11  2  0
 11 12  1  0
 11 37  1  0
 12 13  1  0
 12 14  1  0
 14 15  2  0
 15 16  1  0
 16 27  1  0
 16 17  2  0
 17 18  1  0
 17 38  1  0
 18 19  2  0
 18 39  1  0
 19 20  1  0
 19 27  1  0
 20 21  1  0
 20 40  1  0
 21 22  1  0
 21 41  1  0
 21 42  1  0
 22 26  1  0
 22 23  1  0
 22 43  1  0
 23 24  1  0
 23 44  1  0
 23 45  1  0
 24 25  2  0
 24 46  1  0
 25 26  1  0
 25 47  1  0
 26 48  1  0
 26 49  1  0
M  CHG  1   6   1
M  END
>  <DOCK_score>  (1) 
-41.370811

>  <SMILES>  (1) 
OCC=CC[NH2+]Cc1c[nH]nc1-c1ccc(NCC2CC=CC2)o1

$$$$
