CCc1ccc(-c2c[nH]c(N[C@@H](Cc3ccccc3)c3ccccc3SC3=CCC3)[nH+]2)cc1
     RDKit          3D

 63 67  0  0  1  0  0  0  0  0999 V2000
  130.4693  128.2248  152.0289 C   0  0  0  0  0  0  0  0  0  0  0  0
  131.3388  129.4772  152.1538 C   0  0  0  0  0  0  0  0  0  0  0  0
  130.9900  130.2062  153.4257 C   0  0  0  0  0  0  0  0  0  0  0  0
  131.6597  129.9060  154.5977 C   0  0  0  0  0  0  0  0  0  0  0  0
  131.3483  130.5744  155.7643 C   0  0  0  0  0  0  0  0  0  0  0  0
  130.3488  131.5458  155.7623 C   0  0  0  0  0  0  0  0  0  0  0  0
  130.0059  132.2637  157.0143 C   0  0  0  0  0  0  0  0  0  0  0  0
  129.5615  131.6966  158.1631 C   0  0  0  0  0  0  0  0  0  0  0  0
  129.3686  132.7169  159.0625 N   0  0  0  0  0  0  0  0  0  0  0  0
  129.0533  132.6260  159.9754 H   0  0  0  0  0  0  0  0  0  0  0  0
  129.7011  133.8785  158.4364 C   0  0  0  0  0  0  0  0  0  0  0  0
  129.6467  135.1422  158.9993 N   0  0  0  0  0  0  0  0  0  0  0  0
  129.2008  135.3083  160.3849 C   0  0  1  0  0  0  0  0  0  0  0  0
  129.6109  134.5052  160.9973 H   0  0  0  0  0  0  0  0  0  0  0  0
  129.6878  136.6568  160.9192 C   0  0  0  0  0  0  0  0  0  0  0  0
  131.1931  136.7038  160.8669 C   0  0  0  0  0  0  0  0  0  0  0  0
  131.8409  137.9107  160.6812 C   0  0  0  0  0  0  0  0  0  0  0  0
  133.2219  137.9545  160.6381 C   0  0  0  0  0  0  0  0  0  0  0  0
  133.9548  136.7898  160.7700 C   0  0  0  0  0  0  0  0  0  0  0  0
  133.3069  135.5822  160.9502 C   0  0  0  0  0  0  0  0  0  0  0  0
  131.9261  135.5390  160.9987 C   0  0  0  0  0  0  0  0  0  0  0  0
  127.6954  135.2612  160.4372 C   0  0  0  0  0  0  0  0  0  0  0  0
  126.9522  135.6958  159.3575 C   0  0  0  0  0  0  0  0  0  0  0  0
  125.5708  135.6531  159.4047 C   0  0  0  0  0  0  0  0  0  0  0  0
  124.9285  135.1755  160.5332 C   0  0  0  0  0  0  0  0  0  0  0  0
  125.6650  134.7387  161.6158 C   0  0  0  0  0  0  0  0  0  0  0  0
  127.0538  134.7753  161.5698 C   0  0  0  0  0  0  0  0  0  0  0  0
  127.9980  134.2124  162.9468 S   0  0  0  0  0  0  0  0  0  0  0  0
  128.1847  135.6687  163.9211 C   0  0  0  0  0  0  0  0  0  0  0  0
  129.2103  136.3786  164.3587 C   0  0  0  0  0  0  0  0  0  0  0  0
  128.4387  137.4377  165.1044 C   0  0  0  0  0  0  0  0  0  0  0  0
  127.2415  136.6223  164.6097 C   0  0  0  0  0  0  0  0  0  0  0  0
  130.0871  133.6030  157.2146 N   0  0  0  0  0  0  0  0  0  0  0  0
  130.3813  134.2532  156.5575 H   0  0  0  0  0  0  0  0  0  0  0  0
  129.6732  131.8406  154.5794 C   0  0  0  0  0  0  0  0  0  0  0  0
  129.9968  131.1698  153.4175 C   0  0  0  0  0  0  0  0  0  0  0  0
  129.4181  128.5124  152.0065 H   0  0  0  0  0  0  0  0  0  0  0  0
  130.7215  127.6976  151.1088 H   0  0  0  0  0  0  0  0  0  0  0  0
  130.6492  127.5716  152.8829 H   0  0  0  0  0  0  0  0  0  0  0  0
  132.3896  129.1902  152.1758 H   0  0  0  0  0  0  0  0  0  0  0  0
  131.1585  130.1310  151.2994 H   0  0  0  0  0  0  0  0  0  0  0  0
  132.4306  129.1497  154.5992 H   0  0  0  0  0  0  0  0  0  0  0  0
  131.8754  130.3422  156.6780 H   0  0  0  0  0  0  0  0  0  0  0  0
  129.3914  130.6445  158.3375 H   0  0  0  0  0  0  0  0  0  0  0  0
  129.9036  135.9176  158.4763 H   0  0  0  0  0  0  0  0  0  0  0  0
  129.2778  137.4598  160.3068 H   0  0  0  0  0  0  0  0  0  0  0  0
  129.3561  136.7803  161.9501 H   0  0  0  0  0  0  0  0  0  0  0  0
  131.2682  138.8200  160.5739 H   0  0  0  0  0  0  0  0  0  0  0  0
  133.7281  138.8980  160.4969 H   0  0  0  0  0  0  0  0  0  0  0  0
  135.0337  136.8235  160.7318 H   0  0  0  0  0  0  0  0  0  0  0  0
  133.8795  134.6723  161.0529 H   0  0  0  0  0  0  0  0  0  0  0  0
  131.4199  134.5955  161.1392 H   0  0  0  0  0  0  0  0  0  0  0  0
  127.4504  136.0699  158.4752 H   0  0  0  0  0  0  0  0  0  0  0  0
  124.9920  135.9939  158.5590 H   0  0  0  0  0  0  0  0  0  0  0  0
  123.8495  135.1433  160.5662 H   0  0  0  0  0  0  0  0  0  0  0  0
  125.1628  134.3651  162.4959 H   0  0  0  0  0  0  0  0  0  0  0  0
  130.2731  136.2419  164.2243 H   0  0  0  0  0  0  0  0  0  0  0  0
  128.5106  138.4373  164.6759 H   0  0  0  0  0  0  0  0  0  0  0  0
  128.5811  137.4182  166.1849 H   0  0  0  0  0  0  0  0  0  0  0  0
  126.6053  137.1720  163.9161 H   0  0  0  0  0  0  0  0  0  0  0  0
  126.6751  136.1574  165.4166 H   0  0  0  0  0  0  0  0  0  0  0  0
  128.8977  132.5922  154.5722 H   0  0  0  0  0  0  0  0  0  0  0  0
  129.4736  131.3972  152.5005 H   0  0  0  0  0  0  0  0  0  0  0  0
  1  2  1  0
  1 37  1  0
  1 38  1  0
  1 39  1  0
  2  3  1  0
  2 40  1  0
  2 41  1  0
  3 36  2  0
  3  4  1  0
  4  5  2  0
  4 42  1  0
  5  6  1  0
  5 43  1  0
  6  7  1  0
  6 35  2  0
  7 33  1  0
  7  8  2  0
  8  9  1  0
  8 44  1  0
  9 10  1  0
  9 11  1  0
 11 12  1  0
 11 33  2  0
 12 13  1  0
 12 45  1  0
 13 14  1  1
 13 15  1  0
 13 22  1  0
 15 16  1  0
 15 46  1  0
 15 47  1  0
 16 21  1  0
 16 17  2  0
 17 18  1  0
 17 48  1  0
 18 19  2  0
 18 49  1  0
 19 20  1  0
 19 50  1  0
 20 21  2  0
 20 51  1  0
 21 52  1  0
 22 27  1  0
 22 23  2  0
 23 24  1  0
 23 53  1  0
 24 25  2  0
 24 54  1  0
 25 26  1  0
 25 55  1  0
 26 27  2  0
 26 56  1  0
 27 28  1  0
 28 29  1  0
 29 32  1  0
 29 30  2  0
 30 31  1  0
 30 57  1  0
 31 32  1  0
 31 58  1  0
 31 59  1  0
 32 60  1  0
 32 61  1  0
 33 34  1  0
 35 36  1  0
 35 62  1  0
 36 63  1  0
M  CHG  1  33   1
M  END
>  <DOCK_score>  (1) 
-56.137489

>  <SMILES>  (1) 
CCc1ccc(-c2c[nH]c(N[C@@H](Cc3ccccc3)c3ccccc3SC3=CCC3)[nH+]2)cc1

$$$$
