CC1(C)C(Nc2ccc(O)cc2Nc2[nH]cc(-c3ccccc3)[nH+]2)C[C@H]1O
     RDKit          3D

 52 55  0  0  1  0  0  0  0  0999 V2000
  132.3036  134.1229  161.8867 C   0  0  0  0  0  0  0  0  0  0  0  0
  132.4971  135.5901  161.4982 C   0  0  0  0  0  0  0  0  0  0  0  0
  133.1673  135.7614  160.1337 C   0  0  0  0  0  0  0  0  0  0  0  0
  131.2317  136.4460  161.6749 C   0  0  2  0  0  0  0  0  0  0  0  0
  130.5719  136.7856  160.4118 N   0  0  0  0  0  0  0  0  0  0  0  0
  129.2491  136.3818  160.1808 C   0  0  0  0  0  0  0  0  0  0  0  0
  128.2357  136.8091  161.0249 C   0  0  0  0  0  0  0  0  0  0  0  0
  126.9312  136.4118  160.7969 C   0  0  0  0  0  0  0  0  0  0  0  0
  126.6324  135.5843  159.7243 C   0  0  0  0  0  0  0  0  0  0  0  0
  125.3480  135.1959  159.5035 O   0  0  0  0  0  0  0  0  0  0  0  0
  127.6406  135.1584  158.8733 C   0  0  0  0  0  0  0  0  0  0  0  0
  128.9512  135.5504  159.1017 C   0  0  0  0  0  0  0  0  0  0  0  0
  129.9724  135.1169  158.2470 N   0  0  0  0  0  0  0  0  0  0  0  0
  129.8686  133.8916  157.6098 C   0  0  0  0  0  0  0  0  0  0  0  0
  129.2098  132.8014  158.0899 N   0  0  0  0  0  0  0  0  0  0  0  0
  128.7326  132.7433  158.9324 H   0  0  0  0  0  0  0  0  0  0  0  0
  129.3449  131.7991  157.1606 C   0  0  0  0  0  0  0  0  0  0  0  0
  130.0816  132.3048  156.1403 C   0  0  0  0  0  0  0  0  0  0  0  0
  130.4813  131.5798  154.9095 C   0  0  0  0  0  0  0  0  0  0  0  0
  130.0773  132.0472  153.6601 C   0  0  0  0  0  0  0  0  0  0  0  0
  130.4565  131.3716  152.5180 C   0  0  0  0  0  0  0  0  0  0  0  0
  131.2262  130.2267  152.6119 C   0  0  0  0  0  0  0  0  0  0  0  0
  131.6258  129.7549  153.8499 C   0  0  0  0  0  0  0  0  0  0  0  0
  131.2573  130.4255  154.9984 C   0  0  0  0  0  0  0  0  0  0  0  0
  130.3837  133.5922  156.4422 N   0  0  0  0  0  0  0  0  0  0  0  0
  130.9000  134.1945  155.8839 H   0  0  0  0  0  0  0  0  0  0  0  0
  132.1525  137.5567  162.2070 C   0  0  0  0  0  0  0  0  0  0  0  0
  133.1335  136.4426  162.6086 C   0  0  1  0  0  0  0  0  0  0  0  0
  134.1780  136.6926  162.4226 H   0  0  0  0  0  0  0  0  0  0  0  0
  132.9116  135.9284  163.9234 O   0  0  0  0  0  0  0  0  0  0  0  0
  131.5237  133.6824  161.2658 H   0  0  0  0  0  0  0  0  0  0  0  0
  133.2373  133.5810  161.7362 H   0  0  0  0  0  0  0  0  0  0  0  0
  132.0121  134.0600  162.9353 H   0  0  0  0  0  0  0  0  0  0  0  0
  133.4582  136.8033  159.9999 H   0  0  0  0  0  0  0  0  0  0  0  0
  134.0525  135.1275  160.0815 H   0  0  0  0  0  0  0  0  0  0  0  0
  132.4688  135.4754  159.3473 H   0  0  0  0  0  0  0  0  0  0  0  0
  130.5406  136.0547  162.4215 H   0  0  0  0  0  0  0  0  0  0  0  0
  131.0503  137.2899  159.7351 H   0  0  0  0  0  0  0  0  0  0  0  0
  128.4653  137.4530  161.8609 H   0  0  0  0  0  0  0  0  0  0  0  0
  126.1432  136.7460  161.4554 H   0  0  0  0  0  0  0  0  0  0  0  0
  124.7152  135.5463  160.1453 H   0  0  0  0  0  0  0  0  0  0  0  0
  127.4063  134.5184  158.0354 H   0  0  0  0  0  0  0  0  0  0  0  0
  130.7544  135.6729  158.1047 H   0  0  0  0  0  0  0  0  0  0  0  0
  128.9421  130.7994  157.2296 H   0  0  0  0  0  0  0  0  0  0  0  0
  129.4725  132.9389  153.5856 H   0  0  0  0  0  0  0  0  0  0  0  0
  130.1478  131.7353  151.5491 H   0  0  0  0  0  0  0  0  0  0  0  0
  131.5169  129.6988  151.7156 H   0  0  0  0  0  0  0  0  0  0  0  0
  132.2274  128.8604  153.9176 H   0  0  0  0  0  0  0  0  0  0  0  0
  131.5699  130.0567  155.9642 H   0  0  0  0  0  0  0  0  0  0  0  0
  132.5359  138.2164  161.4287 H   0  0  0  0  0  0  0  0  0  0  0  0
  131.7367  138.0991  163.0561 H   0  0  0  0  0  0  0  0  0  0  0  0
  133.3096  136.4604  164.6261 H   0  0  0  0  0  0  0  0  0  0  0  0
  1  2  1  0
  1 31  1  0
  1 32  1  0
  1 33  1  0
  2 28  1  0
  2  3  1  0
  2  4  1  0
  3 34  1  0
  3 35  1  0
  3 36  1  0
  4  5  1  0
  4 27  1  0
  4 37  1  1
  5  6  1  0
  5 38  1  0
  6 12  1  0
  6  7  2  0
  7  8  1  0
  7 39  1  0
  8  9  2  0
  8 40  1  0
  9 10  1  0
  9 11  1  0
 10 41  1  0
 11 12  2  0
 11 42  1  0
 12 13  1  0
 13 43  1  0
 14 13  1  0
 14 25  2  0
 14 15  1  0
 15 16  1  0
 15 17  1  0
 17 18  2  0
 17 44  1  0
 18 19  1  0
 18 25  1  0
 19 24  1  0
 19 20  2  0
 20 21  1  0
 20 45  1  0
 21 22  2  0
 21 46  1  0
 22 23  1  0
 22 47  1  0
 23 24  2  0
 23 48  1  0
 24 49  1  0
 25 26  1  0
 27 28  1  0
 27 50  1  0
 27 51  1  0
 28 29  1  6
 28 30  1  0
 30 52  1  0
M  CHG  1  25   1
M  END
>  <DOCK_score>  (1) 
-55.750786

>  <SMILES>  (1) 
CC1(C)C(Nc2ccc(O)cc2Nc2[nH]cc(-c3ccccc3)[nH+]2)C[C@H]1O

$$$$
