c1cc(-c2n[nH]cc2C[NH2+]C2CCCCC2)oc1NC[C@@H]1CC12CCCC2
     RDKit          3D

 60 64  0  0  1  0  0  0  0  0999 V2000
  125.7395  133.7233  160.2973 C   0  0  0  0  0  0  0  0  0  0  0  0
  126.6846  133.1342  159.4343 C   0  0  0  0  0  0  0  0  0  0  0  0
  127.8415  133.8320  159.5822 C   0  0  0  0  0  0  0  0  0  0  0  0
  129.1092  133.5668  158.8710 C   0  0  0  0  0  0  0  0  0  0  0  0
  129.3152  132.6175  157.9794 N   0  0  0  0  0  0  0  0  0  0  0  0
  130.6450  132.7072  157.5485 N   0  0  0  0  0  0  0  0  0  0  0  0
  131.0707  132.1322  156.8935 H   0  0  0  0  0  0  0  0  0  0  0  0
  131.2319  133.7327  158.2027 C   0  0  0  0  0  0  0  0  0  0  0  0
  130.3125  134.2879  159.0208 C   0  0  0  0  0  0  0  0  0  0  0  0
  130.5331  135.4661  159.9343 C   0  0  0  0  0  0  0  0  0  0  0  0
  131.9185  135.9359  159.8014 N   0  0  0  0  0  0  0  0  0  0  0  0
  132.5517  135.1918  160.0534 H   0  0  0  0  0  0  0  0  0  0  0  0
  132.0894  136.2140  158.8467 H   0  0  0  0  0  0  0  0  0  0  0  0
  132.1337  137.0843  160.6919 C   0  0  0  0  0  0  0  0  0  0  0  0
  131.5721  138.3487  160.0384 C   0  0  0  0  0  0  0  0  0  0  0  0
  131.7962  139.5447  160.9658 C   0  0  0  0  0  0  0  0  0  0  0  0
  133.2952  139.7225  161.2157 C   0  0  0  0  0  0  0  0  0  0  0  0
  133.8568  138.4581  161.8692 C   0  0  0  0  0  0  0  0  0  0  0  0
  133.6327  137.2620  160.9418 C   0  0  0  0  0  0  0  0  0  0  0  0
  127.6354  134.8052  160.4944 O   0  0  0  0  0  0  0  0  0  0  0  0
  126.3646  134.7488  160.9278 C   0  0  0  0  0  0  0  0  0  0  0  0
  125.7889  135.5958  161.8678 N   0  0  0  0  0  0  0  0  0  0  0  0
  126.6396  136.3604  162.7831 C   0  0  0  0  0  0  0  0  0  0  0  0
  126.8895  135.5416  164.0511 C   0  0  2  0  0  0  0  0  0  0  0  0
  127.3847  134.5822  163.9012 H   0  0  0  0  0  0  0  0  0  0  0  0
  125.8477  135.6335  165.1691 C   0  0  0  0  0  0  0  0  0  0  0  0
  127.2074  136.3061  165.3325 C   0  0  0  0  0  0  0  0  0  0  0  0
  127.3335  137.8396  165.3248 C   0  0  0  0  0  0  0  0  0  0  0  0
  127.9634  138.1725  166.7013 C   0  0  0  0  0  0  0  0  0  0  0  0
  128.9652  137.0096  166.9111 C   0  0  0  0  0  0  0  0  0  0  0  0
  128.2380  135.7743  166.3377 C   0  0  0  0  0  0  0  0  0  0  0  0
  124.7129  133.4163  160.4319 H   0  0  0  0  0  0  0  0  0  0  0  0
  126.5212  132.2902  158.7807 H   0  0  0  0  0  0  0  0  0  0  0  0
  132.2564  134.0549  158.0883 H   0  0  0  0  0  0  0  0  0  0  0  0
  129.8492  136.2701  159.6620 H   0  0  0  0  0  0  0  0  0  0  0  0
  130.3486  135.1659  160.9657 H   0  0  0  0  0  0  0  0  0  0  0  0
  131.6255  136.9090  161.6401 H   0  0  0  0  0  0  0  0  0  0  0  0
  132.0804  138.5238  159.0902 H   0  0  0  0  0  0  0  0  0  0  0  0
  130.5043  138.2220  159.8603 H   0  0  0  0  0  0  0  0  0  0  0  0
  131.2880  139.3694  161.9140 H   0  0  0  0  0  0  0  0  0  0  0  0
  131.3962  140.4455  160.5002 H   0  0  0  0  0  0  0  0  0  0  0  0
  133.4548  140.5745  161.8765 H   0  0  0  0  0  0  0  0  0  0  0  0
  133.8033  139.8978  160.2675 H   0  0  0  0  0  0  0  0  0  0  0  0
  133.3485  138.2829  162.8175 H   0  0  0  0  0  0  0  0  0  0  0  0
  134.9246  138.5847  162.0473 H   0  0  0  0  0  0  0  0  0  0  0  0
  134.0327  136.3613  161.4074 H   0  0  0  0  0  0  0  0  0  0  0  0
  134.1409  137.4373  159.9936 H   0  0  0  0  0  0  0  0  0  0  0  0
  124.8239  135.6805  161.9177 H   0  0  0  0  0  0  0  0  0  0  0  0
  127.5910  136.5786  162.2982 H   0  0  0  0  0  0  0  0  0  0  0  0
  126.1431  137.2945  163.0458 H   0  0  0  0  0  0  0  0  0  0  0  0
  124.9844  136.2774  165.0009 H   0  0  0  0  0  0  0  0  0  0  0  0
  125.6571  134.7343  165.7549 H   0  0  0  0  0  0  0  0  0  0  0  0
  127.9883  138.1650  164.5165 H   0  0  0  0  0  0  0  0  0  0  0  0
  126.3513  138.3033  165.2322 H   0  0  0  0  0  0  0  0  0  0  0  0
  127.2041  138.1738  167.4833 H   0  0  0  0  0  0  0  0  0  0  0  0
  128.4845  139.1293  166.6661 H   0  0  0  0  0  0  0  0  0  0  0  0
  129.1726  136.8716  167.9724 H   0  0  0  0  0  0  0  0  0  0  0  0
  129.8882  137.1976  166.3626 H   0  0  0  0  0  0  0  0  0  0  0  0
  127.7345  135.2318  167.1380 H   0  0  0  0  0  0  0  0  0  0  0  0
  128.9498  135.1209  165.8334 H   0  0  0  0  0  0  0  0  0  0  0  0
  1 21  2  0
  1  2  1  0
  1 32  1  0
  2  3  2  0
  2 33  1  0
  3  4  1  0
  3 20  1  0
  4  9  1  0
  4  5  2  0
  5  6  1  0
  6  7  1  0
  6  8  1  0
  8  9  2  0
  8 34  1  0
  9 10  1  0
 10 11  1  0
 10 35  1  0
 10 36  1  0
 11 12  1  0
 11 13  1  0
 11 14  1  0
 14 19  1  0
 14 15  1  0
 14 37  1  0
 15 16  1  0
 15 38  1  0
 15 39  1  0
 16 17  1  0
 16 40  1  0
 16 41  1  0
 17 18  1  0
 17 42  1  0
 17 43  1  0
 18 19  1  0
 18 44  1  0
 18 45  1  0
 19 46  1  0
 19 47  1  0
 20 21  1  0
 21 22  1  0
 22 23  1  0
 22 48  1  0
 23 24  1  0
 23 49  1  0
 23 50  1  0
 24 25  1  6
 24 27  1  0
 24 26  1  0
 26 27  1  0
 26 51  1  0
 26 52  1  0
 27 31  1  0
 27 28  1  0
 28 29  1  0
 28 53  1  0
 28 54  1  0
 29 30  1  0
 29 55  1  0
 29 56  1  0
 30 31  1  0
 30 57  1  0
 30 58  1  0
 31 59  1  0
 31 60  1  0
M  CHG  1  11   1
M  END
>  <DOCK_score>  (1) 
-45.000896

>  <SMILES>  (1) 
c1cc(-c2n[nH]cc2C[NH2+]C2CCCCC2)oc1NC[C@@H]1CC12CCCC2

$$$$
