CCc1ccc(-c2c[nH]c(N[C@H]3[C@H](O)[C@@H](O)[C@H](O)[C@H](O)[C@@H]3O)[nH+]2)cc1
     RDKit          3D

 49 51  0  0  1  0  0  0  0  0999 V2000
  130.0948  128.7631  151.0423 C   0  0  0  0  0  0  0  0  0  0  0  0
  131.2703  129.6332  151.4921 C   0  0  0  0  0  0  0  0  0  0  0  0
  130.9180  130.3253  152.7836 C   0  0  0  0  0  0  0  0  0  0  0  0
  131.2056  129.7152  153.9921 C   0  0  0  0  0  0  0  0  0  0  0  0
  130.8903  130.3460  155.1784 C   0  0  0  0  0  0  0  0  0  0  0  0
  130.2707  131.5943  155.1575 C   0  0  0  0  0  0  0  0  0  0  0  0
  129.9235  132.2744  156.4292 C   0  0  0  0  0  0  0  0  0  0  0  0
  129.8744  133.6147  156.6298 C   0  0  0  0  0  0  0  0  0  0  0  0
  129.5107  133.8085  157.9402 N   0  0  0  0  0  0  0  0  0  0  0  0
  129.3894  134.6633  158.3824 H   0  0  0  0  0  0  0  0  0  0  0  0
  129.3571  132.5799  158.5050 C   0  0  0  0  0  0  0  0  0  0  0  0
  128.9984  132.3360  159.8198 N   0  0  0  0  0  0  0  0  0  0  0  0
  128.7495  133.4557  160.7310 C   0  0  1  0  0  0  0  0  0  0  0  0
  129.4832  134.2413  160.5503 H   0  0  0  0  0  0  0  0  0  0  0  0
  127.3427  134.0066  160.4896 C   0  0  2  0  0  0  0  0  0  0  0  0
  126.6090  133.2211  160.6704 H   0  0  0  0  0  0  0  0  0  0  0  0
  127.2335  134.4588  159.1384 O   0  0  0  0  0  0  0  0  0  0  0  0
  127.0827  135.1761  161.4413 C   0  0  1  0  0  0  0  0  0  0  0  0
  127.8164  135.9617  161.2605 H   0  0  0  0  0  0  0  0  0  0  0  0
  125.7687  135.6906  161.2159 O   0  0  0  0  0  0  0  0  0  0  0  0
  127.1996  134.6921  162.8880 C   0  0  2  0  0  0  0  0  0  0  0  0
  126.4659  133.9066  163.0687 H   0  0  0  0  0  0  0  0  0  0  0  0
  126.9568  135.7843  163.7768 O   0  0  0  0  0  0  0  0  0  0  0  0
  128.6064  134.1412  163.1293 C   0  0  2  0  0  0  0  0  0  0  0  0
  128.6897  133.7964  164.1600 H   0  0  0  0  0  0  0  0  0  0  0  0
  129.5683  135.1710  162.8923 O   0  0  0  0  0  0  0  0  0  0  0  0
  128.8664  132.9717  162.1776 C   0  0  2  0  0  0  0  0  0  0  0  0
  128.1326  132.1862  162.3584 H   0  0  0  0  0  0  0  0  0  0  0  0
  130.1804  132.4573  162.4031 O   0  0  0  0  0  0  0  0  0  0  0  0
  129.6045  131.6658  157.5990 N   0  0  0  0  0  0  0  0  0  0  0  0
  129.5656  130.7072  157.7420 H   0  0  0  0  0  0  0  0  0  0  0  0
  129.9781  132.2009  153.9372 C   0  0  0  0  0  0  0  0  0  0  0  0
  130.3031  131.5633  152.7573 C   0  0  0  0  0  0  0  0  0  0  0  0
  130.3495  128.2632  150.1078 H   0  0  0  0  0  0  0  0  0  0  0  0
  129.8817  128.0167  151.8074 H   0  0  0  0  0  0  0  0  0  0  0  0
  129.2158  129.3898  150.8912 H   0  0  0  0  0  0  0  0  0  0  0  0
  131.4833  130.3796  150.7269 H   0  0  0  0  0  0  0  0  0  0  0  0
  132.1492  129.0065  151.6432 H   0  0  0  0  0  0  0  0  0  0  0  0
  131.6816  128.7458  154.0072 H   0  0  0  0  0  0  0  0  0  0  0  0
  131.1192  129.8714  156.1211 H   0  0  0  0  0  0  0  0  0  0  0  0
  130.0798  134.3827  155.8988 H   0  0  0  0  0  0  0  0  0  0  0  0
  128.9119  131.4237  160.1376 H   0  0  0  0  0  0  0  0  0  0  0  0
  127.3866  133.7683  158.4790 H   0  0  0  0  0  0  0  0  0  0  0  0
  125.5351  136.4360  161.7859 H   0  0  0  0  0  0  0  0  0  0  0  0
  127.5738  136.5216  163.6718 H   0  0  0  0  0  0  0  0  0  0  0  0
  129.5513  135.5259  161.9929 H   0  0  0  0  0  0  0  0  0  0  0  0
  130.8856  133.1035  162.2607 H   0  0  0  0  0  0  0  0  0  0  0  0
  129.4984  133.1683  153.9152 H   0  0  0  0  0  0  0  0  0  0  0  0
  130.0767  132.0322  151.8112 H   0  0  0  0  0  0  0  0  0  0  0  0
  1  2  1  0
  1 34  1  0
  1 35  1  0
  1 36  1  0
  2  3  1  0
  2 37  1  0
  2 38  1  0
  3 33  2  0
  3  4  1  0
  4  5  2  0
  4 39  1  0
  5  6  1  0
  5 40  1  0
  6  7  1  0
  6 32  2  0
  7 30  1  0
  7  8  2  0
  8  9  1  0
  8 41  1  0
  9 10  1  0
  9 11  1  0
 11 12  1  0
 11 30  2  0
 12 13  1  0
 12 42  1  0
 13 14  1  6
 13 27  1  0
 13 15  1  0
 15 16  1  1
 15 17  1  0
 15 18  1  0
 17 43  1  0
 18 19  1  6
 18 20  1  0
 18 21  1  0
 20 44  1  0
 21 22  1  1
 21 23  1  0
 21 24  1  0
 23 45  1  0
 24 25  1  1
 24 26  1  0
 24 27  1  0
 26 46  1  0
 27 28  1  1
 27 29  1  0
 29 47  1  0
 30 31  1  0
 32 33  1  0
 32 48  1  0
 33 49  1  0
M  CHG  1  30   1
M  END
>  <DOCK_score>  (1) 
-45.319759

>  <SMILES>  (1) 
CCc1ccc(-c2c[nH]c(N[C@H]3[C@H](O)[C@@H](O)[C@H](O)[C@H](O)[C@@H]3O)[nH+]2)cc1

$$$$
