Cc1nn(C)cc1[C@H]1[NH2+][C@H](CO)Cc2c1[nH]c1ccc(O)cc21
     RDKit          3D

 44 47  0  0  1  0  0  0  0  0999 V2000
  131.9816  129.8798  157.8434 C   0  0  0  0  0  0  0  0  0  0  0  0
  131.0984  130.6667  156.9097 C   0  0  0  0  0  0  0  0  0  0  0  0
  130.8120  130.3478  155.6735 N   0  0  0  0  0  0  0  0  0  0  0  0
  129.9645  131.3338  155.1521 N   0  0  0  0  0  0  0  0  0  0  0  0
  129.4059  131.3623  153.7980 C   0  0  0  0  0  0  0  0  0  0  0  0
  129.7493  132.2501  156.1191 C   0  0  0  0  0  0  0  0  0  0  0  0
  130.4434  131.8643  157.2148 C   0  0  0  0  0  0  0  0  0  0  0  0
  130.4962  132.5928  158.5330 C   0  0  1  0  0  0  0  0  0  0  0  0
  131.1298  132.0437  159.2295 H   0  0  0  0  0  0  0  0  0  0  0  0
  131.0388  133.9456  158.3327 N   0  0  0  0  0  0  0  0  0  0  0  0
  132.0082  133.8800  158.0607 H   0  0  0  0  0  0  0  0  0  0  0  0
  130.5179  134.4099  157.6038 H   0  0  0  0  0  0  0  0  0  0  0  0
  130.9334  134.7249  159.5734 C   0  0  2  0  0  0  0  0  0  0  0  0
  131.5296  135.6330  159.4837 H   0  0  0  0  0  0  0  0  0  0  0  0
  131.4507  133.8891  160.7459 C   0  0  0  0  0  0  0  0  0  0  0  0
  132.6109  133.1617  160.3371 O   0  0  0  0  0  0  0  0  0  0  0  0
  129.4647  135.0993  159.8204 C   0  0  0  0  0  0  0  0  0  0  0  0
  128.6417  133.8445  159.6766 C   0  0  0  0  0  0  0  0  0  0  0  0
  129.1018  132.7135  159.1022 C   0  0  0  0  0  0  0  0  0  0  0  0
  128.1277  131.7596  159.1292 N   0  0  0  0  0  0  0  0  0  0  0  0
  128.2186  130.8605  158.7766 H   0  0  0  0  0  0  0  0  0  0  0  0
  126.9929  132.2636  159.7332 C   0  0  0  0  0  0  0  0  0  0  0  0
  125.7443  131.7211  160.0164 C   0  0  0  0  0  0  0  0  0  0  0  0
  124.7848  132.4864  160.6401 C   0  0  0  0  0  0  0  0  0  0  0  0
  125.0548  133.8036  161.0026 C   0  0  0  0  0  0  0  0  0  0  0  0
  124.0980  134.5452  161.6221 O   0  0  0  0  0  0  0  0  0  0  0  0
  126.2894  134.3596  160.7361 C   0  0  0  0  0  0  0  0  0  0  0  0
  127.2707  133.5951  160.0995 C   0  0  0  0  0  0  0  0  0  0  0  0
  131.3770  129.1599  158.3949 H   0  0  0  0  0  0  0  0  0  0  0  0
  132.7401  129.3508  157.2663 H   0  0  0  0  0  0  0  0  0  0  0  0
  132.4664  130.5596  158.5440 H   0  0  0  0  0  0  0  0  0  0  0  0
  128.4499  130.8387  153.7883 H   0  0  0  0  0  0  0  0  0  0  0  0
  129.2570  132.3966  153.4881 H   0  0  0  0  0  0  0  0  0  0  0  0
  130.0954  130.8727  153.1103 H   0  0  0  0  0  0  0  0  0  0  0  0
  129.1353  133.1344  156.0332 H   0  0  0  0  0  0  0  0  0  0  0  0
  131.7083  134.5475  161.5756 H   0  0  0  0  0  0  0  0  0  0  0  0
  130.6768  133.1902  161.0632 H   0  0  0  0  0  0  0  0  0  0  0  0
  133.3419  133.7214  160.0411 H   0  0  0  0  0  0  0  0  0  0  0  0
  129.3504  135.5028  160.8265 H   0  0  0  0  0  0  0  0  0  0  0  0
  129.1436  135.8390  159.0870 H   0  0  0  0  0  0  0  0  0  0  0  0
  125.5255  130.6994  159.7431 H   0  0  0  0  0  0  0  0  0  0  0  0
  123.8158  132.0602  160.8542 H   0  0  0  0  0  0  0  0  0  0  0  0
  124.3757  135.4466  161.8354 H   0  0  0  0  0  0  0  0  0  0  0  0
  126.4962  135.3813  161.0182 H   0  0  0  0  0  0  0  0  0  0  0  0
  1  2  1  0
  1 29  1  0
  1 30  1  0
  1 31  1  0
  2  7  1  0
  2  3  2  0
  3  4  1  0
  4  5  1  0
  4  6  1  0
  5 32  1  0
  5 33  1  0
  5 34  1  0
  6  7  2  0
  6 35  1  0
  7  8  1  0
  8  9  1  1
  8 19  1  0
  8 10  1  0
 10 11  1  0
 10 12  1  0
 10 13  1  0
 13 14  1  6
 13 15  1  0
 13 17  1  0
 15 16  1  0
 15 36  1  0
 15 37  1  0
 16 38  1  0
 17 18  1  0
 17 39  1  0
 17 40  1  0
 18 28  1  0
 18 19  2  0
 19 20  1  0
 20 21  1  0
 20 22  1  0
 22 28  2  0
 22 23  1  0
 23 24  2  0
 23 41  1  0
 24 25  1  0
 24 42  1  0
 25 26  1  0
 25 27  2  0
 26 43  1  0
 27 28  1  0
 27 44  1  0
M  CHG  1  10   1
M  END
>  <DOCK_score>  (1) 
-41.370716

>  <SMILES>  (1) 
Cc1nn(C)cc1[C@H]1[NH2+][C@H](CO)Cc2c1[nH]c1ccc(O)cc21

$$$$
