CCc1ccc(-c2c[nH]c(N[C@H](CNc3nc(C(F)(F)F)c[nH]3)Cc3ccc(F)cc3)[nH+]2)cc1
     RDKit          3D

 59 62  0  0  1  0  0  0  0  0999 V2000
  130.7327  129.1132  151.9982 C   0  0  0  0  0  0  0  0  0  0  0  0
  131.9613  129.7353  152.6636 C   0  0  0  0  0  0  0  0  0  0  0  0
  131.5345  130.5064  153.8860 C   0  0  0  0  0  0  0  0  0  0  0  0
  131.4765  129.8730  155.1145 C   0  0  0  0  0  0  0  0  0  0  0  0
  131.0863  130.5741  156.2374 C   0  0  0  0  0  0  0  0  0  0  0  0
  130.7507  131.9229  156.1320 C   0  0  0  0  0  0  0  0  0  0  0  0
  130.3306  132.6817  157.3352 C   0  0  0  0  0  0  0  0  0  0  0  0
  129.6904  132.1725  158.4166 C   0  0  0  0  0  0  0  0  0  0  0  0
  129.4929  133.2141  159.2902 N   0  0  0  0  0  0  0  0  0  0  0  0
  129.0620  133.1626  160.1577 H   0  0  0  0  0  0  0  0  0  0  0  0
  130.0188  134.3305  158.7164 C   0  0  0  0  0  0  0  0  0  0  0  0
  130.0256  135.5973  159.2748 N   0  0  0  0  0  0  0  0  0  0  0  0
  129.4305  135.8190  160.5951 C   0  0  2  0  0  0  0  0  0  0  0  0
  129.6763  134.9827  161.2494 H   0  0  0  0  0  0  0  0  0  0  0  0
  127.9107  135.9294  160.4574 C   0  0  0  0  0  0  0  0  0  0  0  0
  127.2828  135.6728  161.7560 N   0  0  0  0  0  0  0  0  0  0  0  0
  126.3920  134.6221  161.8990 C   0  0  0  0  0  0  0  0  0  0  0  0
  126.0300  133.7889  160.9524 N   0  0  0  0  0  0  0  0  0  0  0  0
  125.1567  132.8991  161.4539 C   0  0  0  0  0  0  0  0  0  0  0  0
  124.5070  131.7737  160.6905 C   0  0  0  0  0  0  0  0  0  0  0  0
  124.9524  131.7916  159.3645 F   0  0  0  0  0  0  0  0  0  0  0  0
  124.8480  130.5520  161.2807 F   0  0  0  0  0  0  0  0  0  0  0  0
  123.1174  131.9332  160.7178 F   0  0  0  0  0  0  0  0  0  0  0  0
  124.9576  133.1877  162.7512 C   0  0  0  0  0  0  0  0  0  0  0  0
  125.7394  134.2825  163.0431 N   0  0  0  0  0  0  0  0  0  0  0  0
  125.8111  134.7277  163.9019 H   0  0  0  0  0  0  0  0  0  0  0  0
  129.9838  137.1141  161.1929 C   0  0  0  0  0  0  0  0  0  0  0  0
  131.4808  137.0054  161.3284 C   0  0  0  0  0  0  0  0  0  0  0  0
  132.0345  136.5091  162.4939 C   0  0  0  0  0  0  0  0  0  0  0  0
  133.4070  136.4038  162.6171 C   0  0  0  0  0  0  0  0  0  0  0  0
  134.2279  136.8064  161.5773 C   0  0  0  0  0  0  0  0  0  0  0  0
  135.5699  136.7098  161.6991 F   0  0  0  0  0  0  0  0  0  0  0  0
  133.6723  137.3085  160.4127 C   0  0  0  0  0  0  0  0  0  0  0  0
  132.2993  137.4073  160.2893 C   0  0  0  0  0  0  0  0  0  0  0  0
  130.5184  134.0085  157.5483 N   0  0  0  0  0  0  0  0  0  0  0  0
  130.9534  134.6207  156.9344 H   0  0  0  0  0  0  0  0  0  0  0  0
  130.8060  132.5543  154.8907 C   0  0  0  0  0  0  0  0  0  0  0  0
  131.2036  131.8448  153.7757 C   0  0  0  0  0  0  0  0  0  0  0  0
  130.2419  128.4388  152.7000 H   0  0  0  0  0  0  0  0  0  0  0  0
  130.0392  129.9017  151.7065 H   0  0  0  0  0  0  0  0  0  0  0  0
  131.0416  128.5554  151.1141 H   0  0  0  0  0  0  0  0  0  0  0  0
  132.4528  130.4097  151.9620 H   0  0  0  0  0  0  0  0  0  0  0  0
  132.6555  128.9468  152.9553 H   0  0  0  0  0  0  0  0  0  0  0  0
  131.7364  128.8279  155.1950 H   0  0  0  0  0  0  0  0  0  0  0  0
  131.0412  130.0788  157.1960 H   0  0  0  0  0  0  0  0  0  0  0  0
  129.3932  131.1445  158.5635 H   0  0  0  0  0  0  0  0  0  0  0  0
  130.4243  136.3380  158.7919 H   0  0  0  0  0  0  0  0  0  0  0  0
  127.6484  136.9315  160.1185 H   0  0  0  0  0  0  0  0  0  0  0  0
  127.5574  135.1965  159.7320 H   0  0  0  0  0  0  0  0  0  0  0  0
  127.4910  136.2391  162.5157 H   0  0  0  0  0  0  0  0  0  0  0  0
  124.3080  132.6611  163.4346 H   0  0  0  0  0  0  0  0  0  0  0  0
  129.7380  137.9504  160.5385 H   0  0  0  0  0  0  0  0  0  0  0  0
  129.5411  137.2791  162.1751 H   0  0  0  0  0  0  0  0  0  0  0  0
  131.3942  136.1999  163.3067 H   0  0  0  0  0  0  0  0  0  0  0  0
  133.8393  136.0123  163.5261 H   0  0  0  0  0  0  0  0  0  0  0  0
  134.3116  137.6232  159.6012 H   0  0  0  0  0  0  0  0  0  0  0  0
  131.8657  137.7988  159.3811 H   0  0  0  0  0  0  0  0  0  0  0  0
  130.5424  133.5980  154.8023 H   0  0  0  0  0  0  0  0  0  0  0  0
  131.2514  132.3343  152.8141 H   0  0  0  0  0  0  0  0  0  0  0  0
  1  2  1  0
  1 39  1  0
  1 40  1  0
  1 41  1  0
  2  3  1  0
  2 42  1  0
  2 43  1  0
  3 38  2  0
  3  4  1  0
  4  5  2  0
  4 44  1  0
  5  6  1  0
  5 45  1  0
  6  7  1  0
  6 37  2  0
  7 35  1  0
  7  8  2  0
  8  9  1  0
  8 46  1  0
  9 10  1  0
  9 11  1  0
 11 12  1  0
 11 35  2  0
 12 13  1  0
 12 47  1  0
 13 14  1  1
 13 15  1  0
 13 27  1  0
 15 16  1  0
 15 48  1  0
 15 49  1  0
 16 17  1  0
 16 50  1  0
 17 25  1  0
 17 18  2  0
 18 19  1  0
 19 20  1  0
 19 24  2  0
 20 21  1  0
 20 22  1  0
 20 23  1  0
 24 25  1  0
 24 51  1  0
 25 26  1  0
 27 28  1  0
 27 52  1  0
 27 53  1  0
 28 34  1  0
 28 29  2  0
 29 30  1  0
 29 54  1  0
 30 31  2  0
 30 55  1  0
 31 32  1  0
 31 33  1  0
 33 34  2  0
 33 56  1  0
 34 57  1  0
 35 36  1  0
 37 38  1  0
 37 58  1  0
 38 59  1  0
M  CHG  1  35   1
M  END
>  <DOCK_score>  (1) 
-56.638199

>  <SMILES>  (1) 
CCc1ccc(-c2c[nH]c(N[C@H](CNc3nc(C(F)(F)F)c[nH]3)Cc3ccc(F)cc3)[nH+]2)cc1

$$$$
