O=C1CC[C@H]([NH+]=C(NC2CC2)N[C@H]2C[C@H](c3ccccc3)C2)CN1
     RDKit          3D

 51 54  0  0  1  0  0  0  0  0999 V2000
  124.2942  133.8333  161.4752 O   0  0  0  0  0  0  0  0  0  0  0  0
  125.4251  134.1886  161.2185 C   0  0  0  0  0  0  0  0  0  0  0  0
  126.4168  133.1465  160.7875 C   0  0  0  0  0  0  0  0  0  0  0  0
  127.8402  133.6900  160.9344 C   0  0  0  0  0  0  0  0  0  0  0  0
  127.8999  135.0757  160.2803 C   0  0  2  0  0  0  0  0  0  0  0  0
  127.5122  135.0171  159.2634 H   0  0  0  0  0  0  0  0  0  0  0  0
  129.2871  135.5462  160.2512 N   0  0  0  0  0  0  0  0  0  0  0  0
  129.5300  136.3680  160.7055 H   0  0  0  0  0  0  0  0  0  0  0  0
  130.1944  134.8604  159.6148 C   0  0  0  0  0  0  0  0  0  0  0  0
  129.8451  134.1115  158.5160 N   0  0  0  0  0  0  0  0  0  0  0  0
  130.8650  133.3406  157.8005 C   0  0  0  0  0  0  0  0  0  0  0  0
  130.3898  132.1693  156.9385 C   0  0  0  0  0  0  0  0  0  0  0  0
  131.1146  131.9025  158.2593 C   0  0  0  0  0  0  0  0  0  0  0  0
  131.5010  134.8859  160.0420 N   0  0  0  0  0  0  0  0  0  0  0  0
  131.8735  135.6839  161.2128 C   0  0  1  0  0  0  0  0  0  0  0  0
  131.3484  135.3783  162.1178 H   0  0  0  0  0  0  0  0  0  0  0  0
  133.3926  135.8294  161.4010 C   0  0  0  0  0  0  0  0  0  0  0  0
  133.3041  137.0798  160.5104 C   0  0  2  0  0  0  0  0  0  0  0  0
  133.4182  136.8677  159.4474 H   0  0  0  0  0  0  0  0  0  0  0  0
  134.1767  138.2164  160.9770 C   0  0  0  0  0  0  0  0  0  0  0  0
  133.8022  139.5232  160.7263 C   0  0  0  0  0  0  0  0  0  0  0  0
  134.6001  140.5659  161.1587 C   0  0  0  0  0  0  0  0  0  0  0  0
  135.7777  140.3017  161.8326 C   0  0  0  0  0  0  0  0  0  0  0  0
  136.1549  138.9947  162.0788 C   0  0  0  0  0  0  0  0  0  0  0  0
  135.3543  137.9522  161.6510 C   0  0  0  0  0  0  0  0  0  0  0  0
  131.8387  137.2006  160.9607 C   0  0  0  0  0  0  0  0  0  0  0  0
  127.0475  136.0425  161.1032 C   0  0  0  0  0  0  0  0  0  0  0  0
  125.7212  135.4837  161.3339 N   0  0  0  0  0  0  0  0  0  0  0  0
  126.2355  132.8833  159.7454 H   0  0  0  0  0  0  0  0  0  0  0  0
  126.3023  132.2586  161.4091 H   0  0  0  0  0  0  0  0  0  0  0  0
  128.5420  133.0195  160.4382 H   0  0  0  0  0  0  0  0  0  0  0  0
  128.0953  133.7715  161.9910 H   0  0  0  0  0  0  0  0  0  0  0  0
  128.9226  134.0904  158.2167 H   0  0  0  0  0  0  0  0  0  0  0  0
  131.7228  133.9117  157.4455 H   0  0  0  0  0  0  0  0  0  0  0  0
  129.3184  131.9722  156.9038 H   0  0  0  0  0  0  0  0  0  0  0  0
  130.9348  131.9696  156.0160 H   0  0  0  0  0  0  0  0  0  0  0  0
  132.1366  131.5273  158.2056 H   0  0  0  0  0  0  0  0  0  0  0  0
  130.5200  131.5299  159.0934 H   0  0  0  0  0  0  0  0  0  0  0  0
  132.1762  134.3754  159.5681 H   0  0  0  0  0  0  0  0  0  0  0  0
  133.6867  136.0448  162.4283 H   0  0  0  0  0  0  0  0  0  0  0  0
  133.9674  135.0159  160.9582 H   0  0  0  0  0  0  0  0  0  0  0  0
  132.8843  139.7296  160.1959 H   0  0  0  0  0  0  0  0  0  0  0  0
  134.3057  141.5871  160.9661 H   0  0  0  0  0  0  0  0  0  0  0  0
  136.4033  141.1162  162.1665 H   0  0  0  0  0  0  0  0  0  0  0  0
  137.0751  138.7883  162.6049 H   0  0  0  0  0  0  0  0  0  0  0  0
  135.6492  136.9311  161.8430 H   0  0  0  0  0  0  0  0  0  0  0  0
  131.1591  137.4949  160.1610 H   0  0  0  0  0  0  0  0  0  0  0  0
  131.7079  137.7909  161.8675 H   0  0  0  0  0  0  0  0  0  0  0  0
  127.5333  136.2250  162.0618 H   0  0  0  0  0  0  0  0  0  0  0  0
  126.9523  136.9859  160.5657 H   0  0  0  0  0  0  0  0  0  0  0  0
  125.0093  136.0920  161.5873 H   0  0  0  0  0  0  0  0  0  0  0  0
  1  2  2  0
  2 28  1  0
  2  3  1  0
  3  4  1  0
  3 29  1  0
  3 30  1  0
  4  5  1  0
  4 31  1  0
  4 32  1  0
  5  6  1  6
  5  7  1  0
  5 27  1  0
  7  8  1  0
  9  7  2  0
  9 10  1  0
  9 14  1  0
 10 11  1  0
 10 33  1  0
 11 13  1  0
 11 12  1  0
 11 34  1  0
 12 13  1  0
 12 35  1  0
 12 36  1  0
 13 37  1  0
 13 38  1  0
 14 15  1  0
 14 39  1  0
 15 16  1  1
 15 26  1  0
 15 17  1  0
 17 18  1  0
 17 40  1  0
 17 41  1  0
 18 19  1  6
 18 20  1  0
 18 26  1  0
 20 25  1  0
 20 21  2  0
 21 22  1  0
 21 42  1  0
 22 23  2  0
 22 43  1  0
 23 24  1  0
 23 44  1  0
 24 25  2  0
 24 45  1  0
 25 46  1  0
 26 47  1  0
 26 48  1  0
 27 28  1  0
 27 49  1  0
 27 50  1  0
 28 51  1  0
M  CHG  1   7   1
M  END
>  <DOCK_score>  (1) 
-43.99464

>  <SMILES>  (1) 
O=C1CC[C@H]([NH+]=C(NC2CC2)N[C@H]2C[C@H](c3ccccc3)C2)CN1

$$$$
