Cn1nccc1C(c1ccccc1)[C@@H](Nc1[nH]cc(-c2ccc(N)cc2)[nH+]1)C1CCCC1
     RDKit          3D

 63 67  0  0  1  0  0  0  0  0999 V2000
  126.8044  137.0305  162.7235 C   0  0  0  0  0  0  0  0  0  0  0  0
  127.9856  136.4687  163.3832 N   0  0  0  0  0  0  0  0  0  0  0  0
  128.0832  136.1113  164.7342 N   0  0  0  0  0  0  0  0  0  0  0  0
  129.2896  135.6530  164.9497 C   0  0  0  0  0  0  0  0  0  0  0  0
  129.9963  135.6990  163.7436 C   0  0  0  0  0  0  0  0  0  0  0  0
  129.1709  136.2013  162.7962 C   0  0  0  0  0  0  0  0  0  0  0  0
  129.5158  136.4278  161.3468 C   0  0  2  0  0  0  0  0  0  0  0  0
  128.5870  135.6202  160.4774 C   0  0  0  0  0  0  0  0  0  0  0  0
  128.2515  136.0744  159.2156 C   0  0  0  0  0  0  0  0  0  0  0  0
  127.4034  135.3312  158.4162 C   0  0  0  0  0  0  0  0  0  0  0  0
  126.8823  134.1389  158.8826 C   0  0  0  0  0  0  0  0  0  0  0  0
  127.2134  133.6871  160.1464 C   0  0  0  0  0  0  0  0  0  0  0  0
  128.0658  134.4278  160.9438 C   0  0  0  0  0  0  0  0  0  0  0  0
  130.9602  135.9924  161.0921 C   0  0  1  0  0  0  0  0  0  0  0  0
  131.1657  135.0748  161.6434 H   0  0  0  0  0  0  0  0  0  0  0  0
  131.1534  135.7551  159.6594 N   0  0  0  0  0  0  0  0  0  0  0  0
  130.9250  134.4966  159.1293 C   0  0  0  0  0  0  0  0  0  0  0  0
  130.5213  133.4026  159.8305 N   0  0  0  0  0  0  0  0  0  0  0  0
  130.3430  133.3643  160.7832 H   0  0  0  0  0  0  0  0  0  0  0  0
  130.4132  132.3615  158.9391 C   0  0  0  0  0  0  0  0  0  0  0  0
  130.7481  132.8514  157.7200 C   0  0  0  0  0  0  0  0  0  0  0  0
  130.7705  132.0877  156.4482 C   0  0  0  0  0  0  0  0  0  0  0  0
  130.5067  132.7335  155.2415 C   0  0  0  0  0  0  0  0  0  0  0  0
  130.5335  132.0228  154.0601 C   0  0  0  0  0  0  0  0  0  0  0  0
  130.8118  130.6611  154.0732 C   0  0  0  0  0  0  0  0  0  0  0  0
  130.8323  129.9418  152.8759 N   0  0  0  0  0  0  0  0  0  0  0  0
  131.0700  130.0141  155.2759 C   0  0  0  0  0  0  0  0  0  0  0  0
  131.0497  130.7220  156.4591 C   0  0  0  0  0  0  0  0  0  0  0  0
  131.0628  134.1624  157.8694 N   0  0  0  0  0  0  0  0  0  0  0  0
  131.3414  134.7586  157.1567 H   0  0  0  0  0  0  0  0  0  0  0  0
  131.9147  137.0930  161.5598 C   0  0  0  0  0  0  0  0  0  0  0  0
  131.6819  138.3783  160.7391 C   0  0  0  0  0  0  0  0  0  0  0  0
  133.1013  138.9715  160.5530 C   0  0  0  0  0  0  0  0  0  0  0  0
  133.9753  137.7097  160.3444 C   0  0  0  0  0  0  0  0  0  0  0  0
  133.3722  136.6681  161.3094 C   0  0  0  0  0  0  0  0  0  0  0  0
  126.1861  136.2214  162.3348 H   0  0  0  0  0  0  0  0  0  0  0  0
  126.2295  137.6139  163.4427 H   0  0  0  0  0  0  0  0  0  0  0  0
  127.1189  137.6743  161.9020 H   0  0  0  0  0  0  0  0  0  0  0  0
  129.6736  135.3007  165.8956 H   0  0  0  0  0  0  0  0  0  0  0  0
  131.0201  135.3887  163.5947 H   0  0  0  0  0  0  0  0  0  0  0  0
  129.4080  137.4860  161.1088 H   0  0  0  0  0  0  0  0  0  0  0  0
  128.6553  137.0083  158.8530 H   0  0  0  0  0  0  0  0  0  0  0  0
  127.1444  135.6844  157.4290 H   0  0  0  0  0  0  0  0  0  0  0  0
  126.2159  133.5604  158.2598 H   0  0  0  0  0  0  0  0  0  0  0  0
  126.8059  132.7557  160.5109 H   0  0  0  0  0  0  0  0  0  0  0  0
  128.3242  134.0750  161.9312 H   0  0  0  0  0  0  0  0  0  0  0  0
  131.4411  136.4796  159.0822 H   0  0  0  0  0  0  0  0  0  0  0  0
  130.1140  131.3489  159.1657 H   0  0  0  0  0  0  0  0  0  0  0  0
  130.2852  133.7905  155.2313 H   0  0  0  0  0  0  0  0  0  0  0  0
  130.3335  132.5236  153.1244 H   0  0  0  0  0  0  0  0  0  0  0  0
  131.0267  128.9917  152.8842 H   0  0  0  0  0  0  0  0  0  0  0  0
  130.6523  130.3926  152.0361 H   0  0  0  0  0  0  0  0  0  0  0  0
  131.2862  128.9559  155.2838 H   0  0  0  0  0  0  0  0  0  0  0  0
  131.2504  130.2188  157.3933 H   0  0  0  0  0  0  0  0  0  0  0  0
  131.7612  137.2941  162.6201 H   0  0  0  0  0  0  0  0  0  0  0  0
  131.2390  138.1388  159.7724 H   0  0  0  0  0  0  0  0  0  0  0  0
  131.0466  139.0724  161.2893 H   0  0  0  0  0  0  0  0  0  0  0  0
  133.4128  139.5139  161.4456 H   0  0  0  0  0  0  0  0  0  0  0  0
  133.1412  139.6181  159.6763 H   0  0  0  0  0  0  0  0  0  0  0  0
  135.0128  137.9167  160.6064 H   0  0  0  0  0  0  0  0  0  0  0  0
  133.9053  137.3607  159.3142 H   0  0  0  0  0  0  0  0  0  0  0  0
  133.9265  136.6640  162.2480 H   0  0  0  0  0  0  0  0  0  0  0  0
  133.3997  135.6780  160.8547 H   0  0  0  0  0  0  0  0  0  0  0  0
  1  2  1  0
  1 36  1  0
  1 37  1  0
  1 38  1  0
  2  6  1  0
  2  3  1  0
  3  4  2  0
  4  5  1  0
  4 39  1  0
  5  6  2  0
  5 40  1  0
  6  7  1  0
  7  8  1  0
  7 14  1  0
  7 41  1  6
  8 13  1  0
  8  9  2  0
  9 10  1  0
  9 42  1  0
 10 11  2  0
 10 43  1  0
 11 12  1  0
 11 44  1  0
 12 13  2  0
 12 45  1  0
 13 46  1  0
 14 15  1  1
 14 16  1  0
 14 31  1  0
 16 47  1  0
 17 16  1  0
 17 29  2  0
 17 18  1  0
 18 19  1  0
 18 20  1  0
 20 21  2  0
 20 48  1  0
 21 22  1  0
 21 29  1  0
 22 28  1  0
 22 23  2  0
 23 24  1  0
 23 49  1  0
 24 25  2  0
 24 50  1  0
 25 26  1  0
 25 27  1  0
 26 51  1  0
 26 52  1  0
 27 28  2  0
 27 53  1  0
 28 54  1  0
 29 30  1  0
 31 35  1  0
 31 32  1  0
 31 55  1  0
 32 33  1  0
 32 56  1  0
 32 57  1  0
 33 34  1  0
 33 58  1  0
 33 59  1  0
 34 35  1  0
 34 60  1  0
 34 61  1  0
 35 62  1  0
 35 63  1  0
M  CHG  1  29   1
M  END
>  <DOCK_score>  (1) 
-57.018105

>  <SMILES>  (1) 
Cn1nccc1C(c1ccccc1)[C@@H](Nc1[nH]cc(-c2ccc(N)cc2)[nH+]1)C1CCCC1

$$$$
