Cc1ccc(-c2ccc(-c3n[nH]cc3CNc3[nH]c4ccccc4[nH+]3)cc2)cc1
     RDKit          3D

 51 55  0  0  0  0  0  0  0  0999 V2000
  131.8087  129.7287  153.2710 C   0  0  0  0  0  0  0  0  0  0  0  0
  131.2281  130.5343  154.4045 C   0  0  0  0  0  0  0  0  0  0  0  0
  131.2097  131.9149  154.3307 C   0  0  0  0  0  0  0  0  0  0  0  0
  130.6796  132.6572  155.3664 C   0  0  0  0  0  0  0  0  0  0  0  0
  130.1622  132.0126  156.4887 C   0  0  0  0  0  0  0  0  0  0  0  0
  129.5915  132.8049  157.6050 C   0  0  0  0  0  0  0  0  0  0  0  0
  129.6509  132.3151  158.9094 C   0  0  0  0  0  0  0  0  0  0  0  0
  129.1204  133.0509  159.9461 C   0  0  0  0  0  0  0  0  0  0  0  0
  128.5242  134.2853  159.6914 C   0  0  0  0  0  0  0  0  0  0  0  0
  127.9530  135.0775  160.8080 C   0  0  0  0  0  0  0  0  0  0  0  0
  126.6969  135.4535  160.9280 N   0  0  0  0  0  0  0  0  0  0  0  0
  126.5719  136.1801  162.1189 N   0  0  0  0  0  0  0  0  0  0  0  0
  125.7557  136.5784  162.4595 H   0  0  0  0  0  0  0  0  0  0  0  0
  127.7862  136.2350  162.7075 C   0  0  0  0  0  0  0  0  0  0  0  0
  128.6586  135.5604  161.9277 C   0  0  0  0  0  0  0  0  0  0  0  0
  130.1272  135.3641  162.2033 C   0  0  0  0  0  0  0  0  0  0  0  0
  130.8919  135.6188  160.9801 N   0  0  0  0  0  0  0  0  0  0  0  0
  131.8404  136.6140  160.9570 C   0  0  0  0  0  0  0  0  0  0  0  0
  132.3212  137.1837  159.8543 N   0  0  0  0  0  0  0  0  0  0  0  0
  132.0625  136.9666  158.9449 H   0  0  0  0  0  0  0  0  0  0  0  0
  133.2410  138.1307  160.2211 C   0  0  0  0  0  0  0  0  0  0  0  0
  134.0440  139.0188  159.5116 C   0  0  0  0  0  0  0  0  0  0  0  0
  134.8956  139.8640  160.1896 C   0  0  0  0  0  0  0  0  0  0  0  0
  134.9583  139.8361  161.5751 C   0  0  0  0  0  0  0  0  0  0  0  0
  134.1700  138.9629  162.2929 C   0  0  0  0  0  0  0  0  0  0  0  0
  133.3045  138.1024  161.6238 C   0  0  0  0  0  0  0  0  0  0  0  0
  132.4157  137.1438  162.0343 N   0  0  0  0  0  0  0  0  0  0  0  0
  132.2366  136.8931  162.9540 H   0  0  0  0  0  0  0  0  0  0  0  0
  128.4597  134.7725  158.3865 C   0  0  0  0  0  0  0  0  0  0  0  0
  128.9952  134.0395  157.3504 C   0  0  0  0  0  0  0  0  0  0  0  0
  130.1885  130.6209  156.5604 C   0  0  0  0  0  0  0  0  0  0  0  0
  130.7159  129.8886  155.5164 C   0  0  0  0  0  0  0  0  0  0  0  0
  132.8733  129.5711  153.4448 H   0  0  0  0  0  0  0  0  0  0  0  0
  131.3033  128.7646  153.2139 H   0  0  0  0  0  0  0  0  0  0  0  0
  131.6693  130.2681  152.3342 H   0  0  0  0  0  0  0  0  0  0  0  0
  131.6113  132.4133  153.4608 H   0  0  0  0  0  0  0  0  0  0  0  0
  130.6658  133.7355  155.3074 H   0  0  0  0  0  0  0  0  0  0  0  0
  130.1124  131.3589  159.1066 H   0  0  0  0  0  0  0  0  0  0  0  0
  129.1667  132.6717  160.9564 H   0  0  0  0  0  0  0  0  0  0  0  0
  128.0182  136.7293  163.6393 H   0  0  0  0  0  0  0  0  0  0  0  0
  130.4464  136.0566  162.9823 H   0  0  0  0  0  0  0  0  0  0  0  0
  130.3011  134.3402  162.5341 H   0  0  0  0  0  0  0  0  0  0  0  0
  130.7292  135.0855  160.1864 H   0  0  0  0  0  0  0  0  0  0  0  0
  133.9997  139.0459  158.4328 H   0  0  0  0  0  0  0  0  0  0  0  0
  135.5181  140.5532  159.6384 H   0  0  0  0  0  0  0  0  0  0  0  0
  135.6293  140.5036  162.0950 H   0  0  0  0  0  0  0  0  0  0  0  0
  134.2235  138.9465  163.3714 H   0  0  0  0  0  0  0  0  0  0  0  0
  127.9939  135.7266  158.1888 H   0  0  0  0  0  0  0  0  0  0  0  0
  128.9489  134.4187  156.3403 H   0  0  0  0  0  0  0  0  0  0  0  0
  129.7930  130.1165  157.4297 H   0  0  0  0  0  0  0  0  0  0  0  0
  130.7331  128.8101  155.5691 H   0  0  0  0  0  0  0  0  0  0  0  0
  1  2  1  0
  1 33  1  0
  1 34  1  0
  1 35  1  0
  2 32  2  0
  2  3  1  0
  3  4  2  0
  3 36  1  0
  4  5  1  0
  4 37  1  0
  5  6  1  0
  5 31  2  0
  6 30  1  0
  6  7  2  0
  7  8  1  0
  7 38  1  0
  8  9  2  0
  8 39  1  0
  9 10  1  0
  9 29  1  0
 10 15  1  0
 10 11  2  0
 11 12  1  0
 12 13  1  0
 12 14  1  0
 14 15  2  0
 14 40  1  0
 15 16  1  0
 16 17  1  0
 16 41  1  0
 16 42  1  0
 17 18  1  0
 17 43  1  0
 18 27  1  0
 18 19  2  0
 19 20  1  0
 19 21  1  0
 21 26  2  0
 21 22  1  0
 22 23  2  0
 22 44  1  0
 23 24  1  0
 23 45  1  0
 24 25  2  0
 24 46  1  0
 25 26  1  0
 25 47  1  0
 26 27  1  0
 27 28  1  0
 29 30  2  0
 29 48  1  0
 30 49  1  0
 31 32  1  0
 31 50  1  0
 32 51  1  0
M  CHG  1  19   1
M  END
>  <DOCK_score>  (1) 
-45.622322

>  <SMILES>  (1) 
Cc1ccc(-c2ccc(-c3n[nH]cc3CNc3[nH]c4ccccc4[nH+]3)cc2)cc1

$$$$
