CCc1ccc(-c2c[nH]c(N[C@H](CCCl)c3ccccc3)[nH+]2)cc1
     RDKit          3D

 47 49  0  0  1  0  0  0  0  0999 V2000
  130.1481  128.4216  151.6179 C   0  0  0  0  0  0  0  0  0  0  0  0
  131.1760  129.5427  151.7832 C   0  0  0  0  0  0  0  0  0  0  0  0
  130.9377  130.2542  153.0901 C   0  0  0  0  0  0  0  0  0  0  0  0
  131.5729  129.8171  154.2380 C   0  0  0  0  0  0  0  0  0  0  0  0
  131.3630  130.4682  155.4367 C   0  0  0  0  0  0  0  0  0  0  0  0
  130.5000  131.5612  155.4911 C   0  0  0  0  0  0  0  0  0  0  0  0
  130.2661  132.2617  156.7775 C   0  0  0  0  0  0  0  0  0  0  0  0
  129.7616  131.7075  157.9078 C   0  0  0  0  0  0  0  0  0  0  0  0
  129.7128  132.7035  158.8526 N   0  0  0  0  0  0  0  0  0  0  0  0
  129.3968  132.6145  159.7653 H   0  0  0  0  0  0  0  0  0  0  0  0
  130.1895  133.8381  158.2717 C   0  0  0  0  0  0  0  0  0  0  0  0
  130.3068  135.0719  158.8886 N   0  0  0  0  0  0  0  0  0  0  0  0
  129.3753  135.4495  159.9543 C   0  0  2  0  0  0  0  0  0  0  0  0
  128.3713  135.1132  159.6954 H   0  0  0  0  0  0  0  0  0  0  0  0
  129.3773  136.9707  160.1182 C   0  0  0  0  0  0  0  0  0  0  0  0
  130.7866  137.4427  160.4816 C   0  0  0  0  0  0  0  0  0  0  0  0
  130.7890  139.2352  160.6746 Cl  0  0  0  0  0  0  0  0  0  0  0  0
  129.8032  134.8045  161.2474 C   0  0  0  0  0  0  0  0  0  0  0  0
  128.8587  134.4766  162.2021 C   0  0  0  0  0  0  0  0  0  0  0  0
  129.2509  133.8814  163.3864 C   0  0  0  0  0  0  0  0  0  0  0  0
  130.5885  133.6216  163.6197 C   0  0  0  0  0  0  0  0  0  0  0  0
  131.5334  133.9542  162.6673 C   0  0  0  0  0  0  0  0  0  0  0  0
  131.1408  134.5459  161.4813 C   0  0  0  0  0  0  0  0  0  0  0  0
  130.5245  133.5688  157.0334 N   0  0  0  0  0  0  0  0  0  0  0  0
  130.8956  134.2032  156.4005 H   0  0  0  0  0  0  0  0  0  0  0  0
  129.8581  131.9941  154.3322 C   0  0  0  0  0  0  0  0  0  0  0  0
  130.0799  131.3389  153.1379 C   0  0  0  0  0  0  0  0  0  0  0  0
  129.1438  128.8451  151.6235 H   0  0  0  0  0  0  0  0  0  0  0  0
  130.3204  127.9071  150.6726 H   0  0  0  0  0  0  0  0  0  0  0  0
  130.2483  127.7134  152.4405 H   0  0  0  0  0  0  0  0  0  0  0  0
  132.1799  129.1198  151.7772 H   0  0  0  0  0  0  0  0  0  0  0  0
  131.0754  130.2514  150.9602 H   0  0  0  0  0  0  0  0  0  0  0  0
  132.2377  128.9670  154.1956 H   0  0  0  0  0  0  0  0  0  0  0  0
  131.8632  130.1287  156.3317 H   0  0  0  0  0  0  0  0  0  0  0  0
  129.4561  130.6801  158.0396 H   0  0  0  0  0  0  0  0  0  0  0  0
  131.0059  135.6863  158.6152 H   0  0  0  0  0  0  0  0  0  0  0  0
  129.0678  137.4371  159.1830 H   0  0  0  0  0  0  0  0  0  0  0  0
  128.6841  137.2516  160.9111 H   0  0  0  0  0  0  0  0  0  0  0  0
  131.0960  136.9761  161.4170 H   0  0  0  0  0  0  0  0  0  0  0  0
  131.4796  137.1616  159.6887 H   0  0  0  0  0  0  0  0  0  0  0  0
  127.8141  134.6827  162.0213 H   0  0  0  0  0  0  0  0  0  0  0  0
  128.5125  133.6220  164.1307 H   0  0  0  0  0  0  0  0  0  0  0  0
  130.8950  133.1591  164.5463 H   0  0  0  0  0  0  0  0  0  0  0  0
  132.5784  133.7514  162.8496 H   0  0  0  0  0  0  0  0  0  0  0  0
  131.8792  134.8058  160.7371 H   0  0  0  0  0  0  0  0  0  0  0  0
  129.1882  132.8405  154.3686 H   0  0  0  0  0  0  0  0  0  0  0  0
  129.5828  131.6733  152.2393 H   0  0  0  0  0  0  0  0  0  0  0  0
  1  2  1  0
  1 28  1  0
  1 29  1  0
  1 30  1  0
  2  3  1  0
  2 31  1  0
  2 32  1  0
  3 27  2  0
  3  4  1  0
  4  5  2  0
  4 33  1  0
  5  6  1  0
  5 34  1  0
  6  7  1  0
  6 26  2  0
  7 24  1  0
  7  8  2  0
  8  9  1  0
  8 35  1  0
  9 10  1  0
  9 11  1  0
 11 12  1  0
 11 24  2  0
 12 13  1  0
 12 36  1  0
 13 14  1  6
 13 15  1  0
 13 18  1  0
 15 16  1  0
 15 37  1  0
 15 38  1  0
 16 17  1  0
 16 39  1  0
 16 40  1  0
 18 23  1  0
 18 19  2  0
 19 20  1  0
 19 41  1  0
 20 21  2  0
 20 42  1  0
 21 22  1  0
 21 43  1  0
 22 23  2  0
 22 44  1  0
 23 45  1  0
 24 25  1  0
 26 27  1  0
 26 46  1  0
 27 47  1  0
M  CHG  1  24   1
M  END
>  <DOCK_score>  (1) 
-56.047768

>  <SMILES>  (1) 
CCc1ccc(-c2c[nH]c(N[C@H](CCCl)c3ccccc3)[nH+]2)cc1

$$$$
