Cc1ccc2c(C[C@@H](C)[NH2+]Cc3cccc4c3NC(=O)CO4)c[nH]c2c1
     RDKit          3D

 50 53  0  0  1  0  0  0  0  0999 V2000
  128.3338  140.1350  165.8351 C   0  0  0  0  0  0  0  0  0  0  0  0
  128.4072  139.0393  164.8029 C   0  0  0  0  0  0  0  0  0  0  0  0
  129.6427  138.6405  164.3108 C   0  0  0  0  0  0  0  0  0  0  0  0
  129.7296  137.6491  163.3746 C   0  0  0  0  0  0  0  0  0  0  0  0
  128.5671  137.0322  162.9084 C   0  0  0  0  0  0  0  0  0  0  0  0
  128.2982  135.9682  161.9380 C   0  0  0  0  0  0  0  0  0  0  0  0
  129.3214  135.2117  161.1307 C   0  0  0  0  0  0  0  0  0  0  0  0
  129.5661  135.9392  159.8072 C   0  0  1  0  0  0  0  0  0  0  0  0
  128.6191  136.3121  159.4169 H   0  0  0  0  0  0  0  0  0  0  0  0
  130.5197  137.1131  160.0392 C   0  0  0  0  0  0  0  0  0  0  0  0
  130.1618  135.0082  158.8394 N   0  0  0  0  0  0  0  0  0  0  0  0
  130.8377  134.4234  159.3075 H   0  0  0  0  0  0  0  0  0  0  0  0
  130.6189  135.5311  158.1073 H   0  0  0  0  0  0  0  0  0  0  0  0
  129.1077  134.1678  158.2559 C   0  0  0  0  0  0  0  0  0  0  0  0
  129.7188  133.2128  157.2632 C   0  0  0  0  0  0  0  0  0  0  0  0
  129.8465  133.5799  155.9356 C   0  0  0  0  0  0  0  0  0  0  0  0
  130.4122  132.7079  155.0244 C   0  0  0  0  0  0  0  0  0  0  0  0
  130.8550  131.4625  155.4333 C   0  0  0  0  0  0  0  0  0  0  0  0
  130.7306  131.0881  156.7594 C   0  0  0  0  0  0  0  0  0  0  0  0
  130.1593  131.9675  157.6784 C   0  0  0  0  0  0  0  0  0  0  0  0
  130.0366  131.5743  159.0187 N   0  0  0  0  0  0  0  0  0  0  0  0
  130.7441  130.5098  159.4557 C   0  0  0  0  0  0  0  0  0  0  0  0
  130.6310  130.1329  160.6031 O   0  0  0  0  0  0  0  0  0  0  0  0
  131.6752  129.7924  158.5118 C   0  0  0  0  0  0  0  0  0  0  0  0
  131.1616  129.8688  157.1794 O   0  0  0  0  0  0  0  0  0  0  0  0
  126.9671  135.7989  161.9002 C   0  0  0  0  0  0  0  0  0  0  0  0
  126.3621  136.6615  162.7734 N   0  0  0  0  0  0  0  0  0  0  0  0
  125.4057  136.7235  162.9229 H   0  0  0  0  0  0  0  0  0  0  0  0
  127.3129  137.4325  163.4038 C   0  0  0  0  0  0  0  0  0  0  0  0
  127.2478  138.4439  164.3570 C   0  0  0  0  0  0  0  0  0  0  0  0
  128.3879  139.6986  166.8325 H   0  0  0  0  0  0  0  0  0  0  0  0
  129.1669  140.8234  165.6940 H   0  0  0  0  0  0  0  0  0  0  0  0
  127.3934  140.6750  165.7252 H   0  0  0  0  0  0  0  0  0  0  0  0
  130.5421  139.1175  164.6712 H   0  0  0  0  0  0  0  0  0  0  0  0
  130.6941  137.3440  162.9966 H   0  0  0  0  0  0  0  0  0  0  0  0
  128.9538  134.2055  160.9296 H   0  0  0  0  0  0  0  0  0  0  0  0
  130.2547  135.1525  161.6906 H   0  0  0  0  0  0  0  0  0  0  0  0
  130.0777  137.8038  160.7572 H   0  0  0  0  0  0  0  0  0  0  0  0
  131.4668  136.7402  160.4294 H   0  0  0  0  0  0  0  0  0  0  0  0
  130.6940  137.6313  159.0963 H   0  0  0  0  0  0  0  0  0  0  0  0
  128.3776  134.7996  157.7502 H   0  0  0  0  0  0  0  0  0  0  0  0
  128.6138  133.6032  159.0467 H   0  0  0  0  0  0  0  0  0  0  0  0
  129.5033  134.5508  155.6102 H   0  0  0  0  0  0  0  0  0  0  0  0
  130.5095  133.0001  153.9892 H   0  0  0  0  0  0  0  0  0  0  0  0
  131.2964  130.7836  154.7187 H   0  0  0  0  0  0  0  0  0  0  0  0
  129.4532  132.0595  159.6229 H   0  0  0  0  0  0  0  0  0  0  0  0
  131.7585  128.7469  158.8092 H   0  0  0  0  0  0  0  0  0  0  0  0
  132.6593  130.2596  158.5487 H   0  0  0  0  0  0  0  0  0  0  0  0
  126.4503  135.0861  161.2747 H   0  0  0  0  0  0  0  0  0  0  0  0
  126.2916  138.7609  164.7462 H   0  0  0  0  0  0  0  0  0  0  0  0
  1  2  1  0
  1 31  1  0
  1 32  1  0
  1 33  1  0
  2 30  2  0
  2  3  1  0
  3  4  2  0
  3 34  1  0
  4  5  1  0
  4 35  1  0
  5 29  2  0
  5  6  1  0
  6  7  1  0
  6 26  2  0
  7  8  1  0
  7 36  1  0
  7 37  1  0
  8  9  1  6
  8 10  1  0
  8 11  1  0
 10 38  1  0
 10 39  1  0
 10 40  1  0
 11 12  1  0
 11 13  1  0
 11 14  1  0
 14 15  1  0
 14 41  1  0
 14 42  1  0
 15 20  1  0
 15 16  2  0
 16 17  1  0
 16 43  1  0
 17 18  2  0
 17 44  1  0
 18 19  1  0
 18 45  1  0
 19 25  1  0
 19 20  2  0
 20 21  1  0
 21 22  1  0
 21 46  1  0
 22 23  2  0
 22 24  1  0
 24 25  1  0
 24 47  1  0
 24 48  1  0
 26 27  1  0
 26 49  1  0
 27 28  1  0
 27 29  1  0
 29 30  1  0
 30 50  1  0
M  CHG  1  11   1
M  END
>  <DOCK_score>  (1) 
-42.483135

>  <SMILES>  (1) 
Cc1ccc2c(C[C@@H](C)[NH2+]Cc3cccc4c3NC(=O)CO4)c[nH]c2c1

$$$$
