CC=C(CCl)CC[NH+]1CC[C@H](c2c[nH]c3ccccc23)C1
     RDKit          3D

 45 47  0  0  1  0  0  0  0  0999 V2000
  131.8800  129.6173  152.8988 C   0  0  0  0  0  0  0  0  0  0  0  0
  131.1733  130.0257  154.1657 C   0  0  0  0  0  0  0  0  0  0  0  0
  130.5987  131.2001  154.2458 C   0  0  0  0  0  0  0  0  0  0  0  0
  130.6442  132.1429  153.0710 C   0  0  0  0  0  0  0  0  0  0  0  0
  132.1092  133.1865  153.1942 Cl  0  0  0  0  0  0  0  0  0  0  0  0
  129.8921  131.6085  155.5127 C   0  0  0  0  0  0  0  0  0  0  0  0
  130.8809  132.3132  156.4436 C   0  0  0  0  0  0  0  0  0  0  0  0
  130.1920  132.7112  157.6786 N   0  0  1  0  0  0  0  0  0  0  0  0
  129.5548  131.9857  157.9713 H   0  0  0  0  0  0  0  0  0  0  0  0
  131.1820  132.9870  158.7511 C   0  0  0  0  0  0  0  0  0  0  0  0
  130.3960  133.8965  159.7312 C   0  0  0  0  0  0  0  0  0  0  0  0
  129.5473  134.7749  158.7835 C   0  0  2  0  0  0  0  0  0  0  0  0
  130.0374  135.7336  158.6136 H   0  0  0  0  0  0  0  0  0  0  0  0
  128.1709  134.9869  159.3592 C   0  0  0  0  0  0  0  0  0  0  0  0
  127.6104  136.1650  159.6754 C   0  0  0  0  0  0  0  0  0  0  0  0
  126.3514  135.9641  160.1723 N   0  0  0  0  0  0  0  0  0  0  0  0
  125.7508  136.6657  160.4686 H   0  0  0  0  0  0  0  0  0  0  0  0
  126.0639  134.6176  160.1882 C   0  0  0  0  0  0  0  0  0  0  0  0
  124.9526  133.8802  160.5845 C   0  0  0  0  0  0  0  0  0  0  0  0
  124.9681  132.5072  160.4747 C   0  0  0  0  0  0  0  0  0  0  0  0
  126.0827  131.8496  159.9721 C   0  0  0  0  0  0  0  0  0  0  0  0
  127.1847  132.5540  159.5772 C   0  0  0  0  0  0  0  0  0  0  0  0
  127.1883  133.9470  159.6738 C   0  0  0  0  0  0  0  0  0  0  0  0
  129.4598  133.9789  157.4681 C   0  0  0  0  0  0  0  0  0  0  0  0
  132.6866  130.3201  152.6901 H   0  0  0  0  0  0  0  0  0  0  0  0
  132.2927  128.6157  153.0197 H   0  0  0  0  0  0  0  0  0  0  0  0
  131.1716  129.6208  152.0704 H   0  0  0  0  0  0  0  0  0  0  0  0
  131.1409  129.3501  155.0077 H   0  0  0  0  0  0  0  0  0  0  0  0
  130.6840  131.5685  152.1454 H   0  0  0  0  0  0  0  0  0  0  0  0
  129.7514  132.7683  153.0722 H   0  0  0  0  0  0  0  0  0  0  0  0
  129.4942  130.7230  156.0084 H   0  0  0  0  0  0  0  0  0  0  0  0
  129.0744  132.2872  155.2700 H   0  0  0  0  0  0  0  0  0  0  0  0
  131.2786  133.1987  155.9479 H   0  0  0  0  0  0  0  0  0  0  0  0
  131.6984  131.6344  156.6862 H   0  0  0  0  0  0  0  0  0  0  0  0
  131.4852  132.0620  159.2416 H   0  0  0  0  0  0  0  0  0  0  0  0
  132.0482  133.5125  158.3492 H   0  0  0  0  0  0  0  0  0  0  0  0
  131.0783  134.5107  160.3187 H   0  0  0  0  0  0  0  0  0  0  0  0
  129.7555  133.3024  160.3833 H   0  0  0  0  0  0  0  0  0  0  0  0
  128.0831  137.1286  159.5555 H   0  0  0  0  0  0  0  0  0  0  0  0
  124.0808  134.3826  160.9771 H   0  0  0  0  0  0  0  0  0  0  0  0
  124.1044  131.9366  160.7824 H   0  0  0  0  0  0  0  0  0  0  0  0
  126.0788  130.7725  159.8929 H   0  0  0  0  0  0  0  0  0  0  0  0
  128.0482  132.0357  159.1874 H   0  0  0  0  0  0  0  0  0  0  0  0
  129.9224  134.5452  156.6599 H   0  0  0  0  0  0  0  0  0  0  0  0
  128.4178  133.7700  157.2258 H   0  0  0  0  0  0  0  0  0  0  0  0
  1  2  1  0
  1 25  1  0
  1 26  1  0
  1 27  1  0
  2  3  2  0
  2 28  1  0
  3  4  1  0
  3  6  1  0
  4  5  1  0
  4 29  1  0
  4 30  1  0
  6  7  1  0
  6 31  1  0
  6 32  1  0
  7  8  1  0
  7 33  1  0
  7 34  1  0
  8  9  1  1
  8 24  1  0
  8 10  1  0
 10 11  1  0
 10 35  1  0
 10 36  1  0
 11 12  1  0
 11 37  1  0
 11 38  1  0
 12 13  1  6
 12 14  1  0
 12 24  1  0
 14 23  1  0
 14 15  2  0
 15 16  1  0
 15 39  1  0
 16 17  1  0
 16 18  1  0
 18 23  2  0
 18 19  1  0
 19 20  2  0
 19 40  1  0
 20 21  1  0
 20 41  1  0
 21 22  2  0
 21 42  1  0
 22 23  1  0
 22 43  1  0
 24 44  1  0
 24 45  1  0
M  CHG  1   8   1
M  END
>  <DOCK_score>  (1) 
-41.347485

>  <SMILES>  (1) 
CC=C(CCl)CC[NH+]1CC[C@H](c2c[nH]c3ccccc23)C1

$$$$
