Nc1ccc(-c2c[nH]c(Nc3cc(N)ccc3Sc3ccccc3)[nH+]2)cc1
     RDKit          3D

 47 50  0  0  1  0  0  0  0  0999 V2000
  131.3236  130.3971  152.1776 N   0  0  0  0  0  0  0  0  0  0  0  0
  131.0095  131.0047  153.3957 C   0  0  0  0  0  0  0  0  0  0  0  0
  130.2955  132.1974  153.4123 C   0  0  0  0  0  0  0  0  0  0  0  0
  129.9840  132.7988  154.6135 C   0  0  0  0  0  0  0  0  0  0  0  0
  130.3856  132.2099  155.8115 C   0  0  0  0  0  0  0  0  0  0  0  0
  130.0520  132.8552  157.1050 C   0  0  0  0  0  0  0  0  0  0  0  0
  129.3073  132.3113  158.0993 C   0  0  0  0  0  0  0  0  0  0  0  0
  129.2480  133.2428  159.1082 N   0  0  0  0  0  0  0  0  0  0  0  0
  128.7854  133.1443  159.9551 H   0  0  0  0  0  0  0  0  0  0  0  0
  129.9591  134.3290  158.6996 C   0  0  0  0  0  0  0  0  0  0  0  0
  130.1462  135.4917  159.4286 N   0  0  0  0  0  0  0  0  0  0  0  0
  129.1663  135.9154  160.3343 C   0  0  0  0  0  0  0  0  0  0  0  0
  127.8328  135.6108  160.1076 C   0  0  0  0  0  0  0  0  0  0  0  0
  126.8626  136.0381  161.0040 C   0  0  0  0  0  0  0  0  0  0  0  0
  125.5156  135.7363  160.7728 N   0  0  0  0  0  0  0  0  0  0  0  0
  127.2275  136.7642  162.1302 C   0  0  0  0  0  0  0  0  0  0  0  0
  128.5567  137.0640  162.3617 C   0  0  0  0  0  0  0  0  0  0  0  0
  129.5302  136.6401  161.4693 C   0  0  0  0  0  0  0  0  0  0  0  0
  131.2244  137.0229  161.7654 S   0  0  0  0  0  0  0  0  0  0  0  0
  131.2336  138.7846  161.7951 C   0  0  0  0  0  0  0  0  0  0  0  0
  130.0518  139.4907  161.6040 C   0  0  0  0  0  0  0  0  0  0  0  0
  130.0626  140.8712  161.6282 C   0  0  0  0  0  0  0  0  0  0  0  0
  131.2472  141.5515  161.8417 C   0  0  0  0  0  0  0  0  0  0  0  0
  132.4267  140.8522  162.0271 C   0  0  0  0  0  0  0  0  0  0  0  0
  132.4226  139.4716  162.0098 C   0  0  0  0  0  0  0  0  0  0  0  0
  130.4330  134.0954  157.4997 N   0  0  0  0  0  0  0  0  0  0  0  0
  130.9723  134.7104  156.9785 H   0  0  0  0  0  0  0  0  0  0  0  0
  131.1060  131.0166  155.7920 C   0  0  0  0  0  0  0  0  0  0  0  0
  131.4109  130.4161  154.5887 C   0  0  0  0  0  0  0  0  0  0  0  0
  131.0435  130.8076  151.3443 H   0  0  0  0  0  0  0  0  0  0  0  0
  131.8217  129.5652  152.1649 H   0  0  0  0  0  0  0  0  0  0  0  0
  129.9848  132.6535  152.4840 H   0  0  0  0  0  0  0  0  0  0  0  0
  129.4289  133.7252  154.6261 H   0  0  0  0  0  0  0  0  0  0  0  0
  128.8484  131.3336  158.0985 H   0  0  0  0  0  0  0  0  0  0  0  0
  130.9562  136.0125  159.3116 H   0  0  0  0  0  0  0  0  0  0  0  0
  127.5486  135.0458  159.2321 H   0  0  0  0  0  0  0  0  0  0  0  0
  124.8375  136.0343  161.3989 H   0  0  0  0  0  0  0  0  0  0  0  0
  125.2604  135.2290  159.9863 H   0  0  0  0  0  0  0  0  0  0  0  0
  126.4711  137.0957  162.8262 H   0  0  0  0  0  0  0  0  0  0  0  0
  128.8373  137.6292  163.2381 H   0  0  0  0  0  0  0  0  0  0  0  0
  129.1260  138.9603  161.4364 H   0  0  0  0  0  0  0  0  0  0  0  0
  129.1446  141.4205  161.4802 H   0  0  0  0  0  0  0  0  0  0  0  0
  131.2533  142.6312  161.8607 H   0  0  0  0  0  0  0  0  0  0  0  0
  133.3510  141.3868  162.1897 H   0  0  0  0  0  0  0  0  0  0  0  0
  133.3427  138.9262  162.1586 H   0  0  0  0  0  0  0  0  0  0  0  0
  131.4221  130.5609  156.7187 H   0  0  0  0  0  0  0  0  0  0  0  0
  131.9657  129.4898  154.5732 H   0  0  0  0  0  0  0  0  0  0  0  0
  1  2  1  0
  1 30  1  0
  1 31  1  0
  2 29  2  0
  2  3  1  0
  3  4  2  0
  3 32  1  0
  4  5  1  0
  4 33  1  0
  5  6  1  0
  5 28  2  0
  6 26  1  0
  6  7  2  0
  7  8  1  0
  7 34  1  0
  8  9  1  0
  8 10  1  0
 10 11  1  0
 10 26  2  0
 11 12  1  0
 11 35  1  0
 12 18  1  0
 12 13  2  0
 13 14  1  0
 13 36  1  0
 14 15  1  0
 14 16  2  0
 15 37  1  0
 15 38  1  0
 16 17  1  0
 16 39  1  0
 17 18  2  0
 17 40  1  0
 18 19  1  0
 19 20  1  0
 20 25  1  0
 20 21  2  0
 21 22  1  0
 21 41  1  0
 22 23  2  0
 22 42  1  0
 23 24  1  0
 23 43  1  0
 24 25  2  0
 24 44  1  0
 25 45  1  0
 26 27  1  0
 28 29  1  0
 28 46  1  0
 29 47  1  0
M  CHG  1  26   1
M  END
>  <DOCK_score>  (1) 
-53.363533

>  <SMILES>  (1) 
Nc1ccc(-c2c[nH]c(Nc3cc(N)ccc3Sc3ccccc3)[nH+]2)cc1

$$$$
