O=C1CC[C@H]([NH+]=C(NCc2ccccc2)N[C@H]2CCc3ccccc3C2)CN1
     RDKit          3D

 57 60  0  0  1  0  0  0  0  0999 V2000
  123.7549  134.0983  161.8331 O   0  0  0  0  0  0  0  0  0  0  0  0
  124.9499  134.2469  161.6895 C   0  0  0  0  0  0  0  0  0  0  0  0
  125.7667  133.0628  161.2582 C   0  0  0  0  0  0  0  0  0  0  0  0
  127.2472  133.3162  161.5528 C   0  0  0  0  0  0  0  0  0  0  0  0
  127.6193  134.7016  161.0110 C   0  0  2  0  0  0  0  0  0  0  0  0
  127.3189  134.7812  159.9663 H   0  0  0  0  0  0  0  0  0  0  0  0
  129.0664  134.9007  161.1228 N   0  0  0  0  0  0  0  0  0  0  0  0
  129.4412  135.2944  161.9262 H   0  0  0  0  0  0  0  0  0  0  0  0
  129.8503  134.5489  160.1428 C   0  0  0  0  0  0  0  0  0  0  0  0
  129.3192  133.9909  159.0040 N   0  0  0  0  0  0  0  0  0  0  0  0
  129.9846  134.1862  157.7136 C   0  0  0  0  0  0  0  0  0  0  0  0
  130.3746  132.8475  157.1416 C   0  0  0  0  0  0  0  0  0  0  0  0
  130.4238  132.6691  155.7718 C   0  0  0  0  0  0  0  0  0  0  0  0
  130.7866  131.4426  155.2471 C   0  0  0  0  0  0  0  0  0  0  0  0
  131.0891  130.3915  156.0925 C   0  0  0  0  0  0  0  0  0  0  0  0
  131.0349  130.5686  157.4624 C   0  0  0  0  0  0  0  0  0  0  0  0
  130.6776  131.7967  157.9869 C   0  0  0  0  0  0  0  0  0  0  0  0
  131.2085  134.7356  160.2478 N   0  0  0  0  0  0  0  0  0  0  0  0
  131.7358  135.8415  161.0510 C   0  0  1  0  0  0  0  0  0  0  0  0
  131.4065  135.7341  162.0845 H   0  0  0  0  0  0  0  0  0  0  0  0
  133.2680  135.8363  160.9940 C   0  0  0  0  0  0  0  0  0  0  0  0
  133.7920  136.8382  162.0208 C   0  0  0  0  0  0  0  0  0  0  0  0
  133.1158  138.1735  161.8511 C   0  0  0  0  0  0  0  0  0  0  0  0
  133.7193  139.2824  162.4306 C   0  0  0  0  0  0  0  0  0  0  0  0
  133.1471  140.5321  162.3156 C   0  0  0  0  0  0  0  0  0  0  0  0
  131.9625  140.6834  161.6185 C   0  0  0  0  0  0  0  0  0  0  0  0
  131.3628  139.5837  161.0407 C   0  0  0  0  0  0  0  0  0  0  0  0
  131.9390  138.3248  161.1530 C   0  0  0  0  0  0  0  0  0  0  0  0
  131.2373  137.1704  160.4868 C   0  0  0  0  0  0  0  0  0  0  0  0
  126.8902  135.7623  161.8368 C   0  0  0  0  0  0  0  0  0  0  0  0
  125.4685  135.4531  161.9234 N   0  0  0  0  0  0  0  0  0  0  0  0
  125.4359  132.1775  161.8013 H   0  0  0  0  0  0  0  0  0  0  0  0
  125.6329  132.9008  160.1887 H   0  0  0  0  0  0  0  0  0  0  0  0
  127.8545  132.5552  161.0626 H   0  0  0  0  0  0  0  0  0  0  0  0
  127.4174  133.2851  162.6290 H   0  0  0  0  0  0  0  0  0  0  0  0
  128.5038  133.4678  159.0549 H   0  0  0  0  0  0  0  0  0  0  0  0
  130.8776  134.7954  157.8539 H   0  0  0  0  0  0  0  0  0  0  0  0
  129.3049  134.6906  157.0270 H   0  0  0  0  0  0  0  0  0  0  0  0
  130.1828  133.4889  155.1113 H   0  0  0  0  0  0  0  0  0  0  0  0
  130.8294  131.3045  154.1769 H   0  0  0  0  0  0  0  0  0  0  0  0
  131.3682  129.4322  155.6827 H   0  0  0  0  0  0  0  0  0  0  0  0
  131.2712  129.7475  158.1228 H   0  0  0  0  0  0  0  0  0  0  0  0
  130.6348  131.9348  159.0573 H   0  0  0  0  0  0  0  0  0  0  0  0
  131.8174  134.1351  159.7900 H   0  0  0  0  0  0  0  0  0  0  0  0
  133.6407  134.8397  161.2301 H   0  0  0  0  0  0  0  0  0  0  0  0
  133.5992  136.1251  159.9964 H   0  0  0  0  0  0  0  0  0  0  0  0
  133.5952  136.4606  163.0242 H   0  0  0  0  0  0  0  0  0  0  0  0
  134.8668  136.9602  161.8878 H   0  0  0  0  0  0  0  0  0  0  0  0
  134.6443  139.1650  162.9758 H   0  0  0  0  0  0  0  0  0  0  0  0
  133.6224  141.3896  162.7686 H   0  0  0  0  0  0  0  0  0  0  0  0
  131.5087  141.6591  161.5265 H   0  0  0  0  0  0  0  0  0  0  0  0
  130.4374  139.7027  160.4968 H   0  0  0  0  0  0  0  0  0  0  0  0
  131.4324  137.2016  159.4148 H   0  0  0  0  0  0  0  0  0  0  0  0
  130.1642  137.2542  160.6590 H   0  0  0  0  0  0  0  0  0  0  0  0
  127.3143  135.7918  162.8404 H   0  0  0  0  0  0  0  0  0  0  0  0
  127.0189  136.7368  161.3659 H   0  0  0  0  0  0  0  0  0  0  0  0
  124.8614  136.1694  162.1667 H   0  0  0  0  0  0  0  0  0  0  0  0
  1  2  2  0
  2 31  1  0
  2  3  1  0
  3  4  1  0
  3 32  1  0
  3 33  1  0
  4  5  1  0
  4 34  1  0
  4 35  1  0
  5  6  1  6
  5  7  1  0
  5 30  1  0
  7  8  1  0
  9  7  2  0
  9 10  1  0
  9 18  1  0
 10 11  1  0
 10 36  1  0
 11 12  1  0
 11 37  1  0
 11 38  1  0
 12 17  1  0
 12 13  2  0
 13 14  1  0
 13 39  1  0
 14 15  2  0
 14 40  1  0
 15 16  1  0
 15 41  1  0
 16 17  2  0
 16 42  1  0
 17 43  1  0
 18 19  1  0
 18 44  1  0
 19 20  1  1
 19 29  1  0
 19 21  1  0
 21 22  1  0
 21 45  1  0
 21 46  1  0
 22 23  1  0
 22 47  1  0
 22 48  1  0
 23 28  2  0
 23 24  1  0
 24 25  2  0
 24 49  1  0
 25 26  1  0
 25 50  1  0
 26 27  2  0
 26 51  1  0
 27 28  1  0
 27 52  1  0
 28 29  1  0
 29 53  1  0
 29 54  1  0
 30 31  1  0
 30 55  1  0
 30 56  1  0
 31 57  1  0
M  CHG  1   7   1
M  END
>  <DOCK_score>  (1) 
-48.036304

>  <SMILES>  (1) 
O=C1CC[C@H]([NH+]=C(NCc2ccccc2)N[C@H]2CCc3ccccc3C2)CN1

$$$$
