CCC=C[C@@H](Nc1[nH]cc(-c2ccc(CC)cc2)[nH+]1)c1ccc(CCCC)cc1
     RDKit          3D

 63 65  0  0  1  0  0  0  0  0999 V2000
  125.5211  134.9266  159.7321 C   0  0  0  0  0  0  0  0  0  0  0  0
  126.2660  135.5247  160.9272 C   0  0  0  0  0  0  0  0  0  0  0  0
  127.7077  135.0872  160.8906 C   0  0  0  0  0  0  0  0  0  0  0  0
  128.5956  135.8106  160.2547 C   0  0  0  0  0  0  0  0  0  0  0  0
  130.0373  135.3731  160.2179 C   0  0  1  0  0  0  0  0  0  0  0  0
  130.1480  134.4402  160.7706 H   0  0  0  0  0  0  0  0  0  0  0  0
  130.4502  135.1688  158.8272 N   0  0  0  0  0  0  0  0  0  0  0  0
  130.2993  133.9263  158.2357 C   0  0  0  0  0  0  0  0  0  0  0  0
  129.7882  132.8183  158.8384 N   0  0  0  0  0  0  0  0  0  0  0  0
  129.4666  132.7576  159.7515 H   0  0  0  0  0  0  0  0  0  0  0  0
  129.8112  131.8017  157.9148 C   0  0  0  0  0  0  0  0  0  0  0  0
  130.3354  132.3172  156.7752 C   0  0  0  0  0  0  0  0  0  0  0  0
  130.5540  131.5833  155.5049 C   0  0  0  0  0  0  0  0  0  0  0  0
  129.9236  132.0055  154.3357 C   0  0  0  0  0  0  0  0  0  0  0  0
  130.1312  131.3190  153.1566 C   0  0  0  0  0  0  0  0  0  0  0  0
  130.9632  130.2137  153.1340 C   0  0  0  0  0  0  0  0  0  0  0  0
  131.1859  129.4681  151.8434 C   0  0  0  0  0  0  0  0  0  0  0  0
  130.1321  128.3681  151.7013 C   0  0  0  0  0  0  0  0  0  0  0  0
  131.5868  129.7871  154.2922 C   0  0  0  0  0  0  0  0  0  0  0  0
  131.3910  130.4692  155.4758 C   0  0  0  0  0  0  0  0  0  0  0  0
  130.6299  133.6216  157.0046 N   0  0  0  0  0  0  0  0  0  0  0  0
  131.0208  134.2318  156.3597 H   0  0  0  0  0  0  0  0  0  0  0  0
  130.9008  136.4356  160.8474 C   0  0  0  0  0  0  0  0  0  0  0  0
  130.9253  137.7113  160.3156 C   0  0  0  0  0  0  0  0  0  0  0  0
  131.7141  138.6870  160.8957 C   0  0  0  0  0  0  0  0  0  0  0  0
  132.4859  138.3846  162.0018 C   0  0  0  0  0  0  0  0  0  0  0  0
  133.3495  139.4470  162.6315 C   0  0  0  0  0  0  0  0  0  0  0  0
  134.7340  139.4308  161.9805 C   0  0  0  0  0  0  0  0  0  0  0  0
  135.6108  140.5096  162.6197 C   0  0  0  0  0  0  0  0  0  0  0  0
  136.9953  140.4933  161.9686 C   0  0  0  0  0  0  0  0  0  0  0  0
  132.4651  137.1076  162.5310 C   0  0  0  0  0  0  0  0  0  0  0  0
  131.6731  136.1330  161.9534 C   0  0  0  0  0  0  0  0  0  0  0  0
  125.9821  135.2721  158.8068 H   0  0  0  0  0  0  0  0  0  0  0  0
  125.5721  133.8389  159.7793 H   0  0  0  0  0  0  0  0  0  0  0  0
  124.4783  135.2430  159.7585 H   0  0  0  0  0  0  0  0  0  0  0  0
  125.8048  135.1792  161.8525 H   0  0  0  0  0  0  0  0  0  0  0  0
  126.2149  136.6124  160.8799 H   0  0  0  0  0  0  0  0  0  0  0  0
  128.0087  134.1774  161.3885 H   0  0  0  0  0  0  0  0  0  0  0  0
  128.2945  136.7204  159.7566 H   0  0  0  0  0  0  0  0  0  0  0  0
  130.8294  135.9043  158.3209 H   0  0  0  0  0  0  0  0  0  0  0  0
  129.4759  130.7865  158.0668 H   0  0  0  0  0  0  0  0  0  0  0  0
  129.2738  132.8680  154.3525 H   0  0  0  0  0  0  0  0  0  0  0  0
  129.6429  131.6452  152.2501 H   0  0  0  0  0  0  0  0  0  0  0  0
  132.1796  129.0217  151.8483 H   0  0  0  0  0  0  0  0  0  0  0  0
  131.1029  130.1607  151.0048 H   0  0  0  0  0  0  0  0  0  0  0  0
  129.1381  128.8152  151.6960 H   0  0  0  0  0  0  0  0  0  0  0  0
  130.2932  127.8290  150.7678 H   0  0  0  0  0  0  0  0  0  0  0  0
  130.2147  127.6761  152.5394 H   0  0  0  0  0  0  0  0  0  0  0  0
  132.2314  128.9209  154.2694 H   0  0  0  0  0  0  0  0  0  0  0  0
  131.8822  130.1379  156.3789 H   0  0  0  0  0  0  0  0  0  0  0  0
  130.3254  137.9464  159.4488 H   0  0  0  0  0  0  0  0  0  0  0  0
  131.7301  139.6847  160.4826 H   0  0  0  0  0  0  0  0  0  0  0  0
  132.8897  140.4240  162.4832 H   0  0  0  0  0  0  0  0  0  0  0  0
  133.4476  139.2501  163.6991 H   0  0  0  0  0  0  0  0  0  0  0  0
  135.1939  138.4537  162.1290 H   0  0  0  0  0  0  0  0  0  0  0  0
  134.6358  139.6278  160.9130 H   0  0  0  0  0  0  0  0  0  0  0  0
  135.1509  141.4866  162.4713 H   0  0  0  0  0  0  0  0  0  0  0  0
  135.7089  140.3125  163.6872 H   0  0  0  0  0  0  0  0  0  0  0  0
  136.8970  140.6904  160.9012 H   0  0  0  0  0  0  0  0  0  0  0  0
  137.6198  141.2619  162.4240 H   0  0  0  0  0  0  0  0  0  0  0  0
  137.4551  139.5163  162.1170 H   0  0  0  0  0  0  0  0  0  0  0  0
  133.0682  136.8712  163.3952 H   0  0  0  0  0  0  0  0  0  0  0  0
  131.6571  135.1352  162.3665 H   0  0  0  0  0  0  0  0  0  0  0  0
  1  2  1  0
  1 33  1  0
  1 34  1  0
  1 35  1  0
  2  3  1  0
  2 36  1  0
  2 37  1  0
  3  4  2  0
  3 38  1  0
  4  5  1  0
  4 39  1  0
  5  6  1  1
  5  7  1  0
  5 23  1  0
  7 40  1  0
  8  7  1  0
  8 21  2  0
  8  9  1  0
  9 10  1  0
  9 11  1  0
 11 12  2  0
 11 41  1  0
 12 13  1  0
 12 21  1  0
 13 20  1  0
 13 14  2  0
 14 15  1  0
 14 42  1  0
 15 16  2  0
 15 43  1  0
 16 17  1  0
 16 19  1  0
 17 18  1  0
 17 44  1  0
 17 45  1  0
 18 46  1  0
 18 47  1  0
 18 48  1  0
 19 20  2  0
 19 49  1  0
 20 50  1  0
 21 22  1  0
 23 32  1  0
 23 24  2  0
 24 25  1  0
 24 51  1  0
 25 26  2  0
 25 52  1  0
 26 27  1  0
 26 31  1  0
 27 28  1  0
 27 53  1  0
 27 54  1  0
 28 29  1  0
 28 55  1  0
 28 56  1  0
 29 30  1  0
 29 57  1  0
 29 58  1  0
 30 59  1  0
 30 60  1  0
 30 61  1  0
 31 32  2  0
 31 62  1  0
 32 63  1  0
M  CHG  1  21   1
M  END
>  <DOCK_score>  (1) 
-61.126057

>  <SMILES>  (1) 
CCC=C[C@@H](Nc1[nH]cc(-c2ccc(CC)cc2)[nH+]1)c1ccc(CCCC)cc1

$$$$
