CCc1ccc(-c2c[nH]c(NC[C@@H](Cc3ccccc3)C(=O)N3CC(F)C3)[nH+]2)cc1
     RDKit          3D

 58 61  0  0  1  0  0  0  0  0999 V2000
  130.0037  128.5448  151.1696 C   0  0  0  0  0  0  0  0  0  0  0  0
  131.1835  129.4570  151.5135 C   0  0  0  0  0  0  0  0  0  0  0  0
  130.8723  130.2283  152.7701 C   0  0  0  0  0  0  0  0  0  0  0  0
  131.2158  129.7033  154.0036 C   0  0  0  0  0  0  0  0  0  0  0  0
  130.9334  130.4052  155.1578 C   0  0  0  0  0  0  0  0  0  0  0  0
  130.3011  131.6448  155.0793 C   0  0  0  0  0  0  0  0  0  0  0  0
  129.9949  132.4039  156.3163 C   0  0  0  0  0  0  0  0  0  0  0  0
  129.2063  131.9833  157.3362 C   0  0  0  0  0  0  0  0  0  0  0  0
  129.1994  132.9864  158.2747 N   0  0  0  0  0  0  0  0  0  0  0  0
  128.7253  132.9783  159.1208 H   0  0  0  0  0  0  0  0  0  0  0  0
  129.9784  133.9949  157.7968 C   0  0  0  0  0  0  0  0  0  0  0  0
  130.2312  135.1935  158.4419 N   0  0  0  0  0  0  0  0  0  0  0  0
  130.0280  135.3039  159.8885 C   0  0  0  0  0  0  0  0  0  0  0  0
  131.0033  136.3328  160.4635 C   0  0  1  0  0  0  0  0  0  0  0  0
  131.9738  136.2240  159.9792 H   0  0  0  0  0  0  0  0  0  0  0  0
  130.4637  137.7425  160.2134 C   0  0  0  0  0  0  0  0  0  0  0  0
  131.4245  138.7560  160.7800 C   0  0  0  0  0  0  0  0  0  0  0  0
  131.2823  139.1890  162.0850 C   0  0  0  0  0  0  0  0  0  0  0  0
  132.1595  140.1236  162.6026 C   0  0  0  0  0  0  0  0  0  0  0  0
  133.1795  140.6245  161.8154 C   0  0  0  0  0  0  0  0  0  0  0  0
  133.3220  140.1911  160.5106 C   0  0  0  0  0  0  0  0  0  0  0  0
  132.4446  139.2568  159.9928 C   0  0  0  0  0  0  0  0  0  0  0  0
  131.1538  136.1083  161.9462 C   0  0  0  0  0  0  0  0  0  0  0  0
  130.1855  136.1846  162.6724 O   0  0  0  0  0  0  0  0  0  0  0  0
  132.3646  135.8229  162.4650 N   0  0  0  0  0  0  0  0  0  0  0  0
  132.9055  135.5544  163.8058 C   0  0  0  0  0  0  0  0  0  0  0  0
  134.0105  134.7245  163.1318 C   0  0  0  0  0  0  0  0  0  0  0  0
  135.2778  134.8926  163.7000 F   0  0  0  0  0  0  0  0  0  0  0  0
  133.7274  135.6493  161.9399 C   0  0  0  0  0  0  0  0  0  0  0  0
  130.4545  133.6419  156.6278 N   0  0  0  0  0  0  0  0  0  0  0  0
  131.0415  134.1798  156.0738 H   0  0  0  0  0  0  0  0  0  0  0  0
  129.9525  132.1658  153.8346 C   0  0  0  0  0  0  0  0  0  0  0  0
  130.2446  131.4576  152.6866 C   0  0  0  0  0  0  0  0  0  0  0  0
  130.2288  127.9871  150.2606 H   0  0  0  0  0  0  0  0  0  0  0  0
  129.8315  127.8484  151.9901 H   0  0  0  0  0  0  0  0  0  0  0  0
  129.1105  129.1498  151.0130 H   0  0  0  0  0  0  0  0  0  0  0  0
  131.3555  130.1531  150.6932 H   0  0  0  0  0  0  0  0  0  0  0  0
  132.0764  128.8516  151.6702 H   0  0  0  0  0  0  0  0  0  0  0  0
  131.7057  128.7426  154.0632 H   0  0  0  0  0  0  0  0  0  0  0  0
  131.2020  129.9948  156.1199 H   0  0  0  0  0  0  0  0  0  0  0  0
  128.6865  131.0388  157.4002 H   0  0  0  0  0  0  0  0  0  0  0  0
  130.5427  135.9602  157.9361 H   0  0  0  0  0  0  0  0  0  0  0  0
  130.2049  134.3349  160.3553 H   0  0  0  0  0  0  0  0  0  0  0  0
  129.0047  135.6219  160.0884 H   0  0  0  0  0  0  0  0  0  0  0  0
  129.4934  137.8513  160.6977 H   0  0  0  0  0  0  0  0  0  0  0  0
  130.3549  137.9049  159.1411 H   0  0  0  0  0  0  0  0  0  0  0  0
  130.4854  138.7977  162.7000 H   0  0  0  0  0  0  0  0  0  0  0  0
  132.0481  140.4623  163.6220 H   0  0  0  0  0  0  0  0  0  0  0  0
  133.8649  141.3546  162.2199 H   0  0  0  0  0  0  0  0  0  0  0  0
  134.1187  140.5825  159.8955 H   0  0  0  0  0  0  0  0  0  0  0  0
  132.5558  138.9185  158.9732 H   0  0  0  0  0  0  0  0  0  0  0  0
  133.2787  136.4459  164.3098 H   0  0  0  0  0  0  0  0  0  0  0  0
  132.2380  134.9633  164.4329 H   0  0  0  0  0  0  0  0  0  0  0  0
  133.7479  133.6805  162.9598 H   0  0  0  0  0  0  0  0  0  0  0  0
  133.7599  135.1391  160.9773 H   0  0  0  0  0  0  0  0  0  0  0  0
  134.3172  136.5658  161.9520 H   0  0  0  0  0  0  0  0  0  0  0  0
  129.4582  133.1239  153.7682 H   0  0  0  0  0  0  0  0  0  0  0  0
  129.9786  131.8623  151.7213 H   0  0  0  0  0  0  0  0  0  0  0  0
  1  2  1  0
  1 34  1  0
  1 35  1  0
  1 36  1  0
  2  3  1  0
  2 37  1  0
  2 38  1  0
  3 33  2  0
  3  4  1  0
  4  5  2  0
  4 39  1  0
  5  6  1  0
  5 40  1  0
  6  7  1  0
  6 32  2  0
  7 30  1  0
  7  8  2  0
  8  9  1  0
  8 41  1  0
  9 10  1  0
  9 11  1  0
 11 12  1  0
 11 30  2  0
 12 13  1  0
 12 42  1  0
 13 14  1  0
 13 43  1  0
 13 44  1  0
 14 15  1  6
 14 16  1  0
 14 23  1  0
 16 17  1  0
 16 45  1  0
 16 46  1  0
 17 22  1  0
 17 18  2  0
 18 19  1  0
 18 47  1  0
 19 20  2  0
 19 48  1  0
 20 21  1  0
 20 49  1  0
 21 22  2  0
 21 50  1  0
 22 51  1  0
 23 24  2  0
 23 25  1  0
 25 29  1  0
 25 26  1  0
 26 27  1  0
 26 52  1  0
 26 53  1  0
 27 28  1  0
 27 29  1  0
 27 54  1  0
 29 55  1  0
 29 56  1  0
 30 31  1  0
 32 33  1  0
 32 57  1  0
 33 58  1  0
M  CHG  1  30   1
M  END
>  <DOCK_score>  (1) 
-57.393322

>  <SMILES>  (1) 
CCc1ccc(-c2c[nH]c(NC[C@@H](Cc3ccccc3)C(=O)N3CC(F)C3)[nH+]2)cc1

$$$$
