Nc1c(Nc2[nH]c3cccc(N)c3[nH+]2)cccc1Nc1ccccc1Cc1ccccc1
     RDKit          3D

 57 61  0  0  1  0  0  0  0  0999 V2000
  131.9450  137.4241  160.4112 N   0  0  0  0  0  0  0  0  0  0  0  0
  130.7377  137.0113  160.9944 C   0  0  0  0  0  0  0  0  0  0  0  0
  129.9019  136.1260  160.3186 C   0  0  0  0  0  0  0  0  0  0  0  0
  130.2649  135.6450  159.0537 N   0  0  0  0  0  0  0  0  0  0  0  0
  130.4270  134.2886  158.8512 C   0  0  0  0  0  0  0  0  0  0  0  0
  130.2662  133.3267  159.8084 N   0  0  0  0  0  0  0  0  0  0  0  0
  130.0220  133.4729  160.7357 H   0  0  0  0  0  0  0  0  0  0  0  0
  130.5134  132.1039  159.2072 C   0  0  0  0  0  0  0  0  0  0  0  0
  130.5044  130.7907  159.6591 C   0  0  0  0  0  0  0  0  0  0  0  0
  130.8098  129.7617  158.7930 C   0  0  0  0  0  0  0  0  0  0  0  0
  131.1273  130.0268  157.4694 C   0  0  0  0  0  0  0  0  0  0  0  0
  131.1418  131.3277  157.0000 C   0  0  0  0  0  0  0  0  0  0  0  0
  131.4629  131.5893  155.6648 N   0  0  0  0  0  0  0  0  0  0  0  0
  130.8330  132.3832  157.8707 C   0  0  0  0  0  0  0  0  0  0  0  0
  130.7633  133.7322  157.7149 N   0  0  0  0  0  0  0  0  0  0  0  0
  130.9359  134.2092  156.8882 H   0  0  0  0  0  0  0  0  0  0  0  0
  128.7055  135.7257  160.8976 C   0  0  0  0  0  0  0  0  0  0  0  0
  128.3458  136.1998  162.1454 C   0  0  0  0  0  0  0  0  0  0  0  0
  129.1740  137.0748  162.8231 C   0  0  0  0  0  0  0  0  0  0  0  0
  130.3731  137.4816  162.2532 C   0  0  0  0  0  0  0  0  0  0  0  0
  131.2113  138.3681  162.9408 N   0  0  0  0  0  0  0  0  0  0  0  0
  130.7448  139.6352  163.2981 C   0  0  0  0  0  0  0  0  0  0  0  0
  129.4474  140.0157  162.9772 C   0  0  0  0  0  0  0  0  0  0  0  0
  128.9895  141.2690  163.3319 C   0  0  0  0  0  0  0  0  0  0  0  0
  129.8206  142.1456  164.0060 C   0  0  0  0  0  0  0  0  0  0  0  0
  131.1120  141.7702  164.3268 C   0  0  0  0  0  0  0  0  0  0  0  0
  131.5749  140.5160  163.9802 C   0  0  0  0  0  0  0  0  0  0  0  0
  132.9806  140.1057  164.3359 C   0  0  0  0  0  0  0  0  0  0  0  0
  133.7427  139.7807  163.0770 C   0  0  0  0  0  0  0  0  0  0  0  0
  134.5331  138.6480  163.0203 C   0  0  0  0  0  0  0  0  0  0  0  0
  135.2283  138.3476  161.8640 C   0  0  0  0  0  0  0  0  0  0  0  0
  135.1412  139.1852  160.7676 C   0  0  0  0  0  0  0  0  0  0  0  0
  134.3553  140.3208  160.8263 C   0  0  0  0  0  0  0  0  0  0  0  0
  133.6560  140.6187  161.9809 C   0  0  0  0  0  0  0  0  0  0  0  0
  132.5275  138.0383  160.8849 H   0  0  0  0  0  0  0  0  0  0  0  0
  132.1973  137.0952  159.5342 H   0  0  0  0  0  0  0  0  0  0  0  0
  130.4024  136.2646  158.3203 H   0  0  0  0  0  0  0  0  0  0  0  0
  130.2580  130.5754  160.6883 H   0  0  0  0  0  0  0  0  0  0  0  0
  130.8013  128.7418  159.1483 H   0  0  0  0  0  0  0  0  0  0  0  0
  131.3650  129.2124  156.8011 H   0  0  0  0  0  0  0  0  0  0  0  0
  131.4726  132.5026  155.3383 H   0  0  0  0  0  0  0  0  0  0  0  0
  131.6760  130.8574  155.0649 H   0  0  0  0  0  0  0  0  0  0  0  0
  128.0543  135.0428  160.3723 H   0  0  0  0  0  0  0  0  0  0  0  0
  127.4141  135.8858  162.5923 H   0  0  0  0  0  0  0  0  0  0  0  0
  128.8882  137.4421  163.7975 H   0  0  0  0  0  0  0  0  0  0  0  0
  132.1171  138.1037  163.1653 H   0  0  0  0  0  0  0  0  0  0  0  0
  128.7979  139.3317  162.4513 H   0  0  0  0  0  0  0  0  0  0  0  0
  127.9813  141.5655  163.0826 H   0  0  0  0  0  0  0  0  0  0  0  0
  129.4601  143.1254  164.2820 H   0  0  0  0  0  0  0  0  0  0  0  0
  131.7581  142.4571  164.8536 H   0  0  0  0  0  0  0  0  0  0  0  0
  133.4761  140.9229  164.8598 H   0  0  0  0  0  0  0  0  0  0  0  0
  132.9506  139.2265  164.9795 H   0  0  0  0  0  0  0  0  0  0  0  0
  134.6043  137.9960  163.8782 H   0  0  0  0  0  0  0  0  0  0  0  0
  135.8426  137.4605  161.8182 H   0  0  0  0  0  0  0  0  0  0  0  0
  135.6873  138.9523  159.8655 H   0  0  0  0  0  0  0  0  0  0  0  0
  134.2875  140.9754  159.9699 H   0  0  0  0  0  0  0  0  0  0  0  0
  133.0419  141.5059  162.0267 H   0  0  0  0  0  0  0  0  0  0  0  0
  1  2  1  0
  1 35  1  0
  1 36  1  0
  2 20  2  0
  2  3  1  0
  3  4  1  0
  3 17  2  0
  4 37  1  0
  5  4  1  0
  5 15  2  0
  5  6  1  0
  6  7  1  0
  6  8  1  0
  8 14  2  0
  8  9  1  0
  9 10  2  0
  9 38  1  0
 10 11  1  0
 10 39  1  0
 11 12  2  0
 11 40  1  0
 12 13  1  0
 12 14  1  0
 13 41  1  0
 13 42  1  0
 14 15  1  0
 15 16  1  0
 17 18  1  0
 17 43  1  0
 18 19  2  0
 18 44  1  0
 19 20  1  0
 19 45  1  0
 20 21  1  0
 21 22  1  0
 21 46  1  0
 22 27  1  0
 22 23  2  0
 23 24  1  0
 23 47  1  0
 24 25  2  0
 24 48  1  0
 25 26  1  0
 25 49  1  0
 26 27  2  0
 26 50  1  0
 27 28  1  0
 28 29  1  0
 28 51  1  0
 28 52  1  0
 29 34  1  0
 29 30  2  0
 30 31  1  0
 30 53  1  0
 31 32  2  0
 31 54  1  0
 32 33  1  0
 32 55  1  0
 33 34  2  0
 33 56  1  0
 34 57  1  0
M  CHG  1  15   1
M  END
>  <DOCK_score>  (1) 
-61.324799

>  <SMILES>  (1) 
Nc1c(Nc2[nH]c3cccc(N)c3[nH+]2)cccc1Nc1ccccc1Cc1ccccc1

$$$$
