CCc1ccc(-c2c[nH]c(N[C@@H](CCC3CC(C4CC4)C3)Cc3ccccc3)[nH+]2)cc1
     RDKit          3D

 67 71  0  0  1  0  0  0  0  0999 V2000
  130.2581  129.2805  151.3832 C   0  0  0  0  0  0  0  0  0  0  0  0
  131.5554  129.5697  152.1409 C   0  0  0  0  0  0  0  0  0  0  0  0
  131.2430  130.3492  153.3923 C   0  0  0  0  0  0  0  0  0  0  0  0
  130.9741  129.6790  154.5723 C   0  0  0  0  0  0  0  0  0  0  0  0
  130.6922  130.3878  155.7225 C   0  0  0  0  0  0  0  0  0  0  0  0
  130.6683  131.7810  155.6912 C   0  0  0  0  0  0  0  0  0  0  0  0
  130.3609  132.5481  156.9229 C   0  0  0  0  0  0  0  0  0  0  0  0
  129.5715  132.1339  157.9448 C   0  0  0  0  0  0  0  0  0  0  0  0
  129.5602  133.1450  158.8748 N   0  0  0  0  0  0  0  0  0  0  0  0
  129.0818  133.1440  159.7186 H   0  0  0  0  0  0  0  0  0  0  0  0
  130.3438  134.1482  158.3936 C   0  0  0  0  0  0  0  0  0  0  0  0
  130.5954  135.3512  159.0307 N   0  0  0  0  0  0  0  0  0  0  0  0
  129.9949  135.6272  160.3382 C   0  0  1  0  0  0  0  0  0  0  0  0
  130.0199  134.7237  160.9476 H   0  0  0  0  0  0  0  0  0  0  0  0
  130.7834  136.7362  161.0378 C   0  0  0  0  0  0  0  0  0  0  0  0
  132.2343  136.2887  161.2270 C   0  0  0  0  0  0  0  0  0  0  0  0
  133.0229  137.3976  161.9266 C   0  0  2  0  0  0  0  0  0  0  0  0
  133.5176  138.4974  160.9725 C   0  0  0  0  0  0  0  0  0  0  0  0
  134.8270  138.4991  161.7824 C   0  0  1  0  0  0  0  0  0  0  0  0
  134.8099  139.4642  162.9694 C   0  0  0  0  0  0  0  0  0  0  0  0
  135.3223  140.8861  162.7314 C   0  0  0  0  0  0  0  0  0  0  0  0
  136.1588  139.8980  163.5467 C   0  0  0  0  0  0  0  0  0  0  0  0
  134.5007  137.0459  162.1653 C   0  0  0  0  0  0  0  0  0  0  0  0
  128.5440  136.0747  160.1490 C   0  0  0  0  0  0  0  0  0  0  0  0
  127.7885  135.8880  161.4395 C   0  0  0  0  0  0  0  0  0  0  0  0
  127.1387  134.6946  161.6937 C   0  0  0  0  0  0  0  0  0  0  0  0
  126.4496  134.5218  162.8795 C   0  0  0  0  0  0  0  0  0  0  0  0
  126.4017  135.5460  163.8066 C   0  0  0  0  0  0  0  0  0  0  0  0
  127.0471  136.7412  163.5502 C   0  0  0  0  0  0  0  0  0  0  0  0
  127.7405  136.9122  162.3667 C   0  0  0  0  0  0  0  0  0  0  0  0
  130.8245  133.7858  157.2293 N   0  0  0  0  0  0  0  0  0  0  0  0
  131.4159  134.3182  156.6745 H   0  0  0  0  0  0  0  0  0  0  0  0
  130.9348  132.4507  154.4982 C   0  0  0  0  0  0  0  0  0  0  0  0
  131.2206  131.7318  153.3555 C   0  0  0  0  0  0  0  0  0  0  0  0
  129.7766  130.2208  151.1149 H   0  0  0  0  0  0  0  0  0  0  0  0
  130.4840  128.7167  150.4781 H   0  0  0  0  0  0  0  0  0  0  0  0
  129.5895  128.6977  152.0167 H   0  0  0  0  0  0  0  0  0  0  0  0
  132.0369  128.6294  152.4093 H   0  0  0  0  0  0  0  0  0  0  0  0
  132.2241  130.1526  151.5074 H   0  0  0  0  0  0  0  0  0  0  0  0
  130.9886  128.5993  154.5943 H   0  0  0  0  0  0  0  0  0  0  0  0
  130.4869  129.8637  156.6442 H   0  0  0  0  0  0  0  0  0  0  0  0
  129.0510  131.1902  158.0141 H   0  0  0  0  0  0  0  0  0  0  0  0
  131.1690  136.0114  158.6115 H   0  0  0  0  0  0  0  0  0  0  0  0
  130.7585  137.6395  160.4285 H   0  0  0  0  0  0  0  0  0  0  0  0
  130.3367  136.9414  162.0106 H   0  0  0  0  0  0  0  0  0  0  0  0
  132.2593  135.3852  161.8363 H   0  0  0  0  0  0  0  0  0  0  0  0
  132.6811  136.0833  160.2543 H   0  0  0  0  0  0  0  0  0  0  0  0
  132.5172  137.7827  162.8120 H   0  0  0  0  0  0  0  0  0  0  0  0
  133.6411  138.1598  159.9435 H   0  0  0  0  0  0  0  0  0  0  0  0
  132.9546  139.4277  161.0491 H   0  0  0  0  0  0  0  0  0  0  0  0
  135.7223  138.5986  161.1689 H   0  0  0  0  0  0  0  0  0  0  0  0
  133.9815  139.3376  163.6665 H   0  0  0  0  0  0  0  0  0  0  0  0
  135.6716  141.1339  161.7290 H   0  0  0  0  0  0  0  0  0  0  0  0
  134.8309  141.6953  163.2716 H   0  0  0  0  0  0  0  0  0  0  0  0
  136.2177  140.0571  164.6234 H   0  0  0  0  0  0  0  0  0  0  0  0
  137.0584  139.4958  163.0808 H   0  0  0  0  0  0  0  0  0  0  0  0
  134.7303  136.8059  163.2034 H   0  0  0  0  0  0  0  0  0  0  0  0
  134.8932  136.3097  161.4639 H   0  0  0  0  0  0  0  0  0  0  0  0
  128.5225  137.1265  159.8642 H   0  0  0  0  0  0  0  0  0  0  0  0
  128.0786  135.4764  159.3657 H   0  0  0  0  0  0  0  0  0  0  0  0
  127.1725  133.8961  160.9673 H   0  0  0  0  0  0  0  0  0  0  0  0
  125.9451  133.5881  163.0797 H   0  0  0  0  0  0  0  0  0  0  0  0
  125.8596  135.4126  164.7311 H   0  0  0  0  0  0  0  0  0  0  0  0
  127.0093  137.5416  164.2744 H   0  0  0  0  0  0  0  0  0  0  0  0
  128.2444  137.8463  162.1661 H   0  0  0  0  0  0  0  0  0  0  0  0
  130.9173  133.5301  154.4682 H   0  0  0  0  0  0  0  0  0  0  0  0
  131.4270  132.2497  152.4305 H   0  0  0  0  0  0  0  0  0  0  0  0
  1  2  1  0
  1 35  1  0
  1 36  1  0
  1 37  1  0
  2  3  1  0
  2 38  1  0
  2 39  1  0
  3 34  2  0
  3  4  1  0
  4  5  2  0
  4 40  1  0
  5  6  1  0
  5 41  1  0
  6  7  1  0
  6 33  2  0
  7 31  1  0
  7  8  2  0
  8  9  1  0
  8 42  1  0
  9 10  1  0
  9 11  1  0
 11 12  1  0
 11 31  2  0
 12 13  1  0
 12 43  1  0
 13 14  1  1
 13 15  1  0
 13 24  1  0
 15 16  1  0
 15 44  1  0
 15 45  1  0
 16 17  1  0
 16 46  1  0
 16 47  1  0
 17 23  1  0
 17 18  1  0
 17 48  1  1
 18 19  1  0
 18 49  1  0
 18 50  1  0
 19 20  1  0
 19 23  1  0
 19 51  1  6
 20 22  1  0
 20 21  1  0
 20 52  1  0
 21 22  1  0
 21 53  1  0
 21 54  1  0
 22 55  1  0
 22 56  1  0
 23 57  1  0
 23 58  1  0
 24 25  1  0
 24 59  1  0
 24 60  1  0
 25 30  1  0
 25 26  2  0
 26 27  1  0
 26 61  1  0
 27 28  2  0
 27 62  1  0
 28 29  1  0
 28 63  1  0
 29 30  2  0
 29 64  1  0
 30 65  1  0
 31 32  1  0
 33 34  1  0
 33 66  1  0
 34 67  1  0
M  CHG  1  31   1
M  END
>  <DOCK_score>  (1) 
-58.133446

>  <SMILES>  (1) 
CCc1ccc(-c2c[nH]c(N[C@@H](CCC3CC(C4CC4)C3)Cc3ccccc3)[nH+]2)cc1

$$$$
