Cc1cccc(COc2cccc([C@H]([NH3+])C(=O)Nc3cccc(O)c3)c2)c1C
     RDKit          3D

 53 55  0  0  1  0  0  0  0  0999 V2000
  136.8822  142.1479  164.3228 C   0  0  0  0  0  0  0  0  0  0  0  0
  136.1012  141.5265  163.1936 C   0  0  0  0  0  0  0  0  0  0  0  0
  136.2554  141.9999  161.9038 C   0  0  0  0  0  0  0  0  0  0  0  0
  135.5387  141.4303  160.8683 C   0  0  0  0  0  0  0  0  0  0  0  0
  134.6676  140.3871  161.1223 C   0  0  0  0  0  0  0  0  0  0  0  0
  134.5142  139.9133  162.4116 C   0  0  0  0  0  0  0  0  0  0  0  0
  133.5646  138.7764  162.6884 C   0  0  0  0  0  0  0  0  0  0  0  0
  132.9472  138.3634  161.4676 O   0  0  0  0  0  0  0  0  0  0  0  0
  132.0563  137.3398  161.5423 C   0  0  0  0  0  0  0  0  0  0  0  0
  131.7866  136.7410  162.7645 C   0  0  0  0  0  0  0  0  0  0  0  0
  130.8811  135.7005  162.8377 C   0  0  0  0  0  0  0  0  0  0  0  0
  130.2439  135.2552  161.6938 C   0  0  0  0  0  0  0  0  0  0  0  0
  130.5113  135.8499  160.4749 C   0  0  0  0  0  0  0  0  0  0  0  0
  129.8156  135.3616  159.2303 C   0  0  2  0  0  0  0  0  0  0  0  0
  130.4084  134.5717  158.7691 H   0  0  0  0  0  0  0  0  0  0  0  0
  129.6642  136.4757  158.2850 N   0  0  0  0  0  0  0  0  0  0  0  0
  129.1985  136.1487  157.4517 H   0  0  0  0  0  0  0  0  0  0  0  0
  129.1155  137.2069  158.7119 H   0  0  0  0  0  0  0  0  0  0  0  0
  130.5745  136.8365  158.0418 H   0  0  0  0  0  0  0  0  0  0  0  0
  128.4560  134.8226  159.5936 C   0  0  0  0  0  0  0  0  0  0  0  0
  127.4928  135.5596  159.5979 O   0  0  0  0  0  0  0  0  0  0  0  0
  128.3104  133.5214  159.9133 N   0  0  0  0  0  0  0  0  0  0  0  0
  127.0480  133.0210  160.2504 C   0  0  0  0  0  0  0  0  0  0  0  0
  126.7302  131.6958  159.9800 C   0  0  0  0  0  0  0  0  0  0  0  0
  125.4839  131.2018  160.3127 C   0  0  0  0  0  0  0  0  0  0  0  0
  124.5519  132.0225  160.9194 C   0  0  0  0  0  0  0  0  0  0  0  0
  124.8618  133.3484  161.1867 C   0  0  0  0  0  0  0  0  0  0  0  0
  123.9425  134.1556  161.7784 O   0  0  0  0  0  0  0  0  0  0  0  0
  126.1116  133.8477  160.8546 C   0  0  0  0  0  0  0  0  0  0  0  0
  131.4197  136.8879  160.3957 C   0  0  0  0  0  0  0  0  0  0  0  0
  135.2274  140.4863  163.4481 C   0  0  0  0  0  0  0  0  0  0  0  0
  135.0554  139.9737  164.8548 C   0  0  0  0  0  0  0  0  0  0  0  0
  136.3097  142.9708  164.7510 H   0  0  0  0  0  0  0  0  0  0  0  0
  137.0700  141.3975  165.0908 H   0  0  0  0  0  0  0  0  0  0  0  0
  137.8319  142.5249  163.9432 H   0  0  0  0  0  0  0  0  0  0  0  0
  136.9357  142.8149  161.7055 H   0  0  0  0  0  0  0  0  0  0  0  0
  135.6589  141.8004  159.8609 H   0  0  0  0  0  0  0  0  0  0  0  0
  134.1073  139.9423  160.3133 H   0  0  0  0  0  0  0  0  0  0  0  0
  132.7981  139.1057  163.3899 H   0  0  0  0  0  0  0  0  0  0  0  0
  134.1152  137.9397  163.1183 H   0  0  0  0  0  0  0  0  0  0  0  0
  132.2840  137.0883  163.6581 H   0  0  0  0  0  0  0  0  0  0  0  0
  130.6709  135.2340  163.7888 H   0  0  0  0  0  0  0  0  0  0  0  0
  129.5365  134.4414  161.7531 H   0  0  0  0  0  0  0  0  0  0  0  0
  129.0808  132.9319  159.9098 H   0  0  0  0  0  0  0  0  0  0  0  0
  127.4582  131.0513  159.5098 H   0  0  0  0  0  0  0  0  0  0  0  0
  125.2388  130.1713  160.1021 H   0  0  0  0  0  0  0  0  0  0  0  0
  123.5797  131.6324  161.1822 H   0  0  0  0  0  0  0  0  0  0  0  0
  124.2495  135.0610  161.9239 H   0  0  0  0  0  0  0  0  0  0  0  0
  126.3561  134.8784  161.0655 H   0  0  0  0  0  0  0  0  0  0  0  0
  131.6313  137.3494  159.4425 H   0  0  0  0  0  0  0  0  0  0  0  0
  135.7755  139.1772  165.0419 H   0  0  0  0  0  0  0  0  0  0  0  0
  135.2220  140.7874  165.5609 H   0  0  0  0  0  0  0  0  0  0  0  0
  134.0442  139.5861  164.9792 H   0  0  0  0  0  0  0  0  0  0  0  0
  1  2  1  0
  1 33  1  0
  1 34  1  0
  1 35  1  0
  2 31  2  0
  2  3  1  0
  3  4  2  0
  3 36  1  0
  4  5  1  0
  4 37  1  0
  5  6  2  0
  5 38  1  0
  6  7  1  0
  6 31  1  0
  7  8  1  0
  7 39  1  0
  7 40  1  0
  8  9  1  0
  9 30  1  0
  9 10  2  0
 10 11  1  0
 10 41  1  0
 11 12  2  0
 11 42  1  0
 12 13  1  0
 12 43  1  0
 13 14  1  0
 13 30  2  0
 14 15  1  6
 14 16  1  0
 14 20  1  0
 16 17  1  0
 16 18  1  0
 16 19  1  0
 20 21  2  0
 20 22  1  0
 22 23  1  0
 22 44  1  0
 23 29  1  0
 23 24  2  0
 24 25  1  0
 24 45  1  0
 25 26  2  0
 25 46  1  0
 26 27  1  0
 26 47  1  0
 27 28  1  0
 27 29  2  0
 28 48  1  0
 29 49  1  0
 30 50  1  0
 31 32  1  0
 32 51  1  0
 32 52  1  0
 32 53  1  0
M  CHG  1  16   1
M  END
>  <DOCK_score>  (1) 
-42.579281

>  <SMILES>  (1) 
Cc1cccc(COc2cccc([C@H]([NH3+])C(=O)Nc3cccc(O)c3)c2)c1C

$$$$
