C/C=C/C[NH2+]Cc1c[nH]nc1-c1ccc([C@@](C)(OC=CCC)c2ccc(C#N)o2)o1
     RDKit          3D

 57 59  0  0  1  0  0  0  0  0999 V2000
  132.7753  139.6504  160.7710 C   0  0  0  0  0  0  0  0  0  0  0  0
  132.8952  138.2134  160.3329 C   0  0  0  0  0  0  0  0  0  0  0  0
  132.2883  137.2697  161.0090 C   0  0  0  0  0  0  0  0  0  0  0  0
  132.4977  135.8240  160.6390 C   0  0  0  0  0  0  0  0  0  0  0  0
  131.4911  135.4215  159.6477 N   0  0  0  0  0  0  0  0  0  0  0  0
  131.5822  135.9962  158.8234 H   0  0  0  0  0  0  0  0  0  0  0  0
  130.5683  135.5383  160.0389 H   0  0  0  0  0  0  0  0  0  0  0  0
  131.6951  134.0121  159.2871 C   0  0  0  0  0  0  0  0  0  0  0  0
  130.6624  133.5992  158.2702 C   0  0  0  0  0  0  0  0  0  0  0  0
  130.8939  132.8903  157.1445 C   0  0  0  0  0  0  0  0  0  0  0  0
  129.7155  132.7237  156.5057 N   0  0  0  0  0  0  0  0  0  0  0  0
  129.5836  132.2498  155.6696 H   0  0  0  0  0  0  0  0  0  0  0  0
  128.7181  133.3596  157.2558 N   0  0  0  0  0  0  0  0  0  0  0  0
  129.2833  133.8898  158.3219 C   0  0  0  0  0  0  0  0  0  0  0  0
  128.5936  134.6531  159.3840 C   0  0  0  0  0  0  0  0  0  0  0  0
  127.4837  135.4205  159.2221 C   0  0  0  0  0  0  0  0  0  0  0  0
  127.1718  135.9559  160.4884 C   0  0  0  0  0  0  0  0  0  0  0  0
  128.1021  135.5001  161.3493 C   0  0  0  0  0  0  0  0  0  0  0  0
  128.1692  135.8193  162.8205 C   0  0  1  0  0  0  0  0  0  0  0  0
  127.3649  134.7807  163.6050 C   0  0  0  0  0  0  0  0  0  0  0  0
  129.5312  135.7925  163.2523 O   0  0  0  0  0  0  0  0  0  0  0  0
  129.7677  136.0605  164.5610 C   0  0  0  0  0  0  0  0  0  0  0  0
  131.0014  136.0518  165.0224 C   0  0  0  0  0  0  0  0  0  0  0  0
  131.2642  136.3494  166.4761 C   0  0  0  0  0  0  0  0  0  0  0  0
  131.4791  137.8533  166.6580 C   0  0  0  0  0  0  0  0  0  0  0  0
  127.5920  137.1901  163.0640 C   0  0  0  0  0  0  0  0  0  0  0  0
  128.2849  138.3491  163.0494 C   0  0  0  0  0  0  0  0  0  0  0  0
  127.3704  139.3807  163.3186 C   0  0  0  0  0  0  0  0  0  0  0  0
  126.1523  138.7894  163.4949 C   0  0  0  0  0  0  0  0  0  0  0  0
  124.9253  139.4635  163.7958 C   0  0  0  0  0  0  0  0  0  0  0  0
  123.9518  139.9983  164.0345 N   0  0  0  0  0  0  0  0  0  0  0  0
  126.3072  137.4590  163.3363 O   0  0  0  0  0  0  0  0  0  0  0  0
  128.9597  134.7131  160.6786 O   0  0  0  0  0  0  0  0  0  0  0  0
  133.2724  140.2942  160.0454 H   0  0  0  0  0  0  0  0  0  0  0  0
  131.7220  139.9233  160.8372 H   0  0  0  0  0  0  0  0  0  0  0  0
  133.2445  139.7731  161.7472 H   0  0  0  0  0  0  0  0  0  0  0  0
  133.4818  137.9617  159.4617 H   0  0  0  0  0  0  0  0  0  0  0  0
  131.6377  137.5278  161.8316 H   0  0  0  0  0  0  0  0  0  0  0  0
  132.3992  135.2031  161.5294 H   0  0  0  0  0  0  0  0  0  0  0  0
  133.4945  135.6978  160.2163 H   0  0  0  0  0  0  0  0  0  0  0  0
  132.6919  133.8859  158.8645 H   0  0  0  0  0  0  0  0  0  0  0  0
  131.5966  133.3913  160.1775 H   0  0  0  0  0  0  0  0  0  0  0  0
  131.8528  132.5191  156.8142 H   0  0  0  0  0  0  0  0  0  0  0  0
  126.9436  135.5862  158.3016 H   0  0  0  0  0  0  0  0  0  0  0  0
  126.3457  136.6109  160.7230 H   0  0  0  0  0  0  0  0  0  0  0  0
  127.7824  133.7893  163.4289 H   0  0  0  0  0  0  0  0  0  0  0  0
  127.4133  135.0115  164.6691 H   0  0  0  0  0  0  0  0  0  0  0  0
  126.3260  134.8012  163.2757 H   0  0  0  0  0  0  0  0  0  0  0  0
  128.9447  136.2811  165.2245 H   0  0  0  0  0  0  0  0  0  0  0  0
  131.8244  135.8311  164.3590 H   0  0  0  0  0  0  0  0  0  0  0  0
  130.4097  136.0298  167.0727 H   0  0  0  0  0  0  0  0  0  0  0  0
  132.1555  135.8131  166.8014 H   0  0  0  0  0  0  0  0  0  0  0  0
  132.3335  138.1730  166.0614 H   0  0  0  0  0  0  0  0  0  0  0  0
  130.5878  138.3898  166.3326 H   0  0  0  0  0  0  0  0  0  0  0  0
  131.6692  138.0686  167.7095 H   0  0  0  0  0  0  0  0  0  0  0  0
  129.3428  138.4618  162.8635 H   0  0  0  0  0  0  0  0  0  0  0  0
  127.5891  140.4367  163.3791 H   0  0  0  0  0  0  0  0  0  0  0  0
  1  2  1  0
  1 34  1  0
  1 35  1  0
  1 36  1  0
  2  3  2  0
  2 37  1  0
  3  4  1  0
  3 38  1  0
  4  5  1  0
  4 39  1  0
  4 40  1  0
  5  6  1  0
  5  7  1  0
  5  8  1  0
  8  9  1  0
  8 41  1  0
  8 42  1  0
  9 14  1  0
  9 10  2  0
 10 11  1  0
 10 43  1  0
 11 12  1  0
 11 13  1  0
 13 14  2  0
 14 15  1  0
 15 33  1  0
 15 16  2  0
 16 17  1  0
 16 44  1  0
 17 18  2  0
 17 45  1  0
 18 19  1  0
 18 33  1  0
 19 20  1  0
 19 21  1  1
 19 26  1  0
 20 46  1  0
 20 47  1  0
 20 48  1  0
 21 22  1  0
 22 23  2  0
 22 49  1  0
 23 24  1  0
 23 50  1  0
 24 25  1  0
 24 51  1  0
 24 52  1  0
 25 53  1  0
 25 54  1  0
 25 55  1  0
 26 32  1  0
 26 27  2  0
 27 28  1  0
 27 56  1  0
 28 29  2  0
 28 57  1  0
 29 30  1  0
 29 32  1  0
 30 31  3  0
M  CHG  1   5   1
M  END
>  <DOCK_score>  (1) 
-41.802864

>  <SMILES>  (1) 
C/C=C/C[NH2+]Cc1c[nH]nc1-c1ccc([C@@](C)(OC=CCC)c2ccc(C#N)o2)o1

$$$$
