Nc1ccc(-c2c[nH]c(N[C@H](CNc3ccccc3)c3c(F)ccc4c3CCC4)[nH+]2)cc1
     RDKit          3D

 59 63  0  0  1  0  0  0  0  0999 V2000
  131.0780  129.7554  151.5033 N   0  0  0  0  0  0  0  0  0  0  0  0
  130.8527  130.4041  152.7197 C   0  0  0  0  0  0  0  0  0  0  0  0
  130.6041  131.7714  152.7414 C   0  0  0  0  0  0  0  0  0  0  0  0
  130.3814  132.4137  153.9411 C   0  0  0  0  0  0  0  0  0  0  0  0
  130.4051  131.6907  155.1327 C   0  0  0  0  0  0  0  0  0  0  0  0
  130.1656  132.3796  156.4245 C   0  0  0  0  0  0  0  0  0  0  0  0
  129.6067  131.8295  157.5306 C   0  0  0  0  0  0  0  0  0  0  0  0
  129.5744  132.8120  158.4917 N   0  0  0  0  0  0  0  0  0  0  0  0
  129.2331  132.7211  159.3952 H   0  0  0  0  0  0  0  0  0  0  0  0
  130.1151  133.9338  157.9432 C   0  0  0  0  0  0  0  0  0  0  0  0
  130.2682  135.1514  158.5841 N   0  0  0  0  0  0  0  0  0  0  0  0
  129.8296  135.3084  159.9730 C   0  0  2  0  0  0  0  0  0  0  0  0
  130.0823  134.4109  160.5377 H   0  0  0  0  0  0  0  0  0  0  0  0
  128.3152  135.5235  160.0084 C   0  0  0  0  0  0  0  0  0  0  0  0
  127.6435  134.3663  159.4119 N   0  0  0  0  0  0  0  0  0  0  0  0
  127.2732  133.2841  160.2135 C   0  0  0  0  0  0  0  0  0  0  0  0
  126.2943  132.3991  159.7794 C   0  0  0  0  0  0  0  0  0  0  0  0
  125.9339  131.3275  160.5725 C   0  0  0  0  0  0  0  0  0  0  0  0
  126.5389  131.1407  161.8018 C   0  0  0  0  0  0  0  0  0  0  0  0
  127.5100  132.0227  162.2392 C   0  0  0  0  0  0  0  0  0  0  0  0
  127.8788  133.0935  161.4490 C   0  0  0  0  0  0  0  0  0  0  0  0
  130.5205  136.4989  160.5864 C   0  0  0  0  0  0  0  0  0  0  0  0
  130.3473  137.7564  160.0358 C   0  0  0  0  0  0  0  0  0  0  0  0
  129.5595  137.9171  158.9499 F   0  0  0  0  0  0  0  0  0  0  0  0
  130.9822  138.8497  160.5997 C   0  0  0  0  0  0  0  0  0  0  0  0
  131.7863  138.6822  161.7099 C   0  0  0  0  0  0  0  0  0  0  0  0
  131.9599  137.4241  162.2620 C   0  0  0  0  0  0  0  0  0  0  0  0
  131.3221  136.3322  161.7025 C   0  0  0  0  0  0  0  0  0  0  0  0
  131.6647  135.0830  162.4859 C   0  0  0  0  0  0  0  0  0  0  0  0
  132.2157  135.5907  163.8351 C   0  0  0  0  0  0  0  0  0  0  0  0
  132.7754  136.9825  163.4583 C   0  0  0  0  0  0  0  0  0  0  0  0
  130.4671  133.6715  156.7082 N   0  0  0  0  0  0  0  0  0  0  0  0
  130.8779  134.3007  156.0948 H   0  0  0  0  0  0  0  0  0  0  0  0
  130.6598  130.3204  155.1090 C   0  0  0  0  0  0  0  0  0  0  0  0
  130.8768  129.6812  153.9066 C   0  0  0  0  0  0  0  0  0  0  0  0
  131.0611  130.2592  150.6745 H   0  0  0  0  0  0  0  0  0  0  0  0
  131.2516  128.8013  151.4873 H   0  0  0  0  0  0  0  0  0  0  0  0
  130.5858  132.3312  151.8180 H   0  0  0  0  0  0  0  0  0  0  0  0
  130.1882  133.4762  153.9574 H   0  0  0  0  0  0  0  0  0  0  0  0
  129.2543  130.8141  157.6364 H   0  0  0  0  0  0  0  0  0  0  0  0
  130.6658  135.9006  158.1134 H   0  0  0  0  0  0  0  0  0  0  0  0
  127.9888  135.6403  161.0418 H   0  0  0  0  0  0  0  0  0  0  0  0
  128.0624  136.4212  159.4440 H   0  0  0  0  0  0  0  0  0  0  0  0
  127.4557  134.3518  158.4603 H   0  0  0  0  0  0  0  0  0  0  0  0
  125.8183  132.5470  158.8213 H   0  0  0  0  0  0  0  0  0  0  0  0
  125.1759  130.6367  160.2338 H   0  0  0  0  0  0  0  0  0  0  0  0
  126.2520  130.3043  162.4219 H   0  0  0  0  0  0  0  0  0  0  0  0
  127.9802  131.8741  163.2001 H   0  0  0  0  0  0  0  0  0  0  0  0
  128.6370  133.7822  161.7914 H   0  0  0  0  0  0  0  0  0  0  0  0
  130.8492  139.8324  160.1718 H   0  0  0  0  0  0  0  0  0  0  0  0
  132.2813  139.5354  162.1494 H   0  0  0  0  0  0  0  0  0  0  0  0
  130.7709  134.4796  162.6453 H   0  0  0  0  0  0  0  0  0  0  0  0
  132.4242  134.5037  161.9609 H   0  0  0  0  0  0  0  0  0  0  0  0
  131.4178  135.6733  164.5731 H   0  0  0  0  0  0  0  0  0  0  0  0
  133.0112  134.9401  164.1983 H   0  0  0  0  0  0  0  0  0  0  0  0
  133.8307  136.9163  163.1933 H   0  0  0  0  0  0  0  0  0  0  0  0
  132.6357  137.6756  164.2879 H   0  0  0  0  0  0  0  0  0  0  0  0
  130.6831  129.7590  156.0313 H   0  0  0  0  0  0  0  0  0  0  0  0
  131.0702  128.6188  153.8874 H   0  0  0  0  0  0  0  0  0  0  0  0
  1  2  1  0
  1 36  1  0
  1 37  1  0
  2 35  2  0
  2  3  1  0
  3  4  2  0
  3 38  1  0
  4  5  1  0
  4 39  1  0
  5  6  1  0
  5 34  2  0
  6 32  1  0
  6  7  2  0
  7  8  1  0
  7 40  1  0
  8  9  1  0
  8 10  1  0
 10 11  1  0
 10 32  2  0
 11 12  1  0
 11 41  1  0
 12 13  1  1
 12 14  1  0
 12 22  1  0
 14 15  1  0
 14 42  1  0
 14 43  1  0
 15 16  1  0
 15 44  1  0
 16 21  1  0
 16 17  2  0
 17 18  1  0
 17 45  1  0
 18 19  2  0
 18 46  1  0
 19 20  1  0
 19 47  1  0
 20 21  2  0
 20 48  1  0
 21 49  1  0
 22 28  1  0
 22 23  2  0
 23 24  1  0
 23 25  1  0
 25 26  2  0
 25 50  1  0
 26 27  1  0
 26 51  1  0
 27 31  1  0
 27 28  2  0
 28 29  1  0
 29 30  1  0
 29 52  1  0
 29 53  1  0
 30 31  1  0
 30 54  1  0
 30 55  1  0
 31 56  1  0
 31 57  1  0
 32 33  1  0
 34 35  1  0
 34 58  1  0
 35 59  1  0
M  CHG  1  32   1
M  END
>  <DOCK_score>  (1) 
-60.054844

>  <SMILES>  (1) 
Nc1ccc(-c2c[nH]c(N[C@H](CNc3ccccc3)c3c(F)ccc4c3CCC4)[nH+]2)cc1

$$$$
