O=C1CC[C@H](NC(NC2CCCC2)=[NH+]C2COc3ccccc3C2)CN1
     RDKit          3D

 55 58  0  0  1  0  0  0  0  0999 V2000
  124.1435  133.6547  161.8680 O   0  0  0  0  0  0  0  0  0  0  0  0
  125.2453  134.0876  161.6044 C   0  0  0  0  0  0  0  0  0  0  0  0
  126.1449  133.2586  160.7332 C   0  0  0  0  0  0  0  0  0  0  0  0
  127.5919  133.7378  160.8738 C   0  0  0  0  0  0  0  0  0  0  0  0
  127.6151  135.2625  160.7128 C   0  0  2  0  0  0  0  0  0  0  0  0
  127.1049  135.5432  159.7914 H   0  0  0  0  0  0  0  0  0  0  0  0
  129.0025  135.7311  160.6686 N   0  0  0  0  0  0  0  0  0  0  0  0
  129.8486  135.2820  159.6824 C   0  0  0  0  0  0  0  0  0  0  0  0
  129.3927  134.3933  158.7378 N   0  0  0  0  0  0  0  0  0  0  0  0
  130.3161  133.4315  158.1309 C   0  0  0  0  0  0  0  0  0  0  0  0
  129.8269  133.0478  156.7191 C   0  0  0  0  0  0  0  0  0  0  0  0
  130.1683  131.5412  156.5961 C   0  0  0  0  0  0  0  0  0  0  0  0
  129.8675  131.0047  158.0176 C   0  0  0  0  0  0  0  0  0  0  0  0
  130.3423  132.1330  158.9561 C   0  0  0  0  0  0  0  0  0  0  0  0
  131.0829  135.6989  159.6431 N   0  0  0  0  0  0  0  0  0  0  0  0
  131.5453  135.7657  158.7931 H   0  0  0  0  0  0  0  0  0  0  0  0
  131.7717  136.0665  160.8826 C   0  0  1  0  0  0  0  0  0  0  0  0
  131.8488  134.8486  161.8123 C   0  0  0  0  0  0  0  0  0  0  0  0
  132.4305  135.2624  163.0493 O   0  0  0  0  0  0  0  0  0  0  0  0
  133.5806  135.9837  163.0002 C   0  0  0  0  0  0  0  0  0  0  0  0
  134.3504  136.0858  164.1548 C   0  0  0  0  0  0  0  0  0  0  0  0
  135.5227  136.8131  164.1457 C   0  0  0  0  0  0  0  0  0  0  0  0
  135.9354  137.4433  162.9860 C   0  0  0  0  0  0  0  0  0  0  0  0
  135.1748  137.3429  161.8377 C   0  0  0  0  0  0  0  0  0  0  0  0
  133.9977  136.6130  161.8404 C   0  0  0  0  0  0  0  0  0  0  0  0
  133.1990  136.5195  160.5651 C   0  0  0  0  0  0  0  0  0  0  0  0
  126.8989  135.8921  161.9082 C   0  0  0  0  0  0  0  0  0  0  0  0
  125.5934  135.2739  162.1042 N   0  0  0  0  0  0  0  0  0  0  0  0
  126.0786  132.2133  161.0352 H   0  0  0  0  0  0  0  0  0  0  0  0
  125.8320  133.3558  159.6937 H   0  0  0  0  0  0  0  0  0  0  0  0
  128.2074  133.2776  160.1008 H   0  0  0  0  0  0  0  0  0  0  0  0
  127.9746  133.4667  161.8577 H   0  0  0  0  0  0  0  0  0  0  0  0
  129.3241  136.3582  161.3352 H   0  0  0  0  0  0  0  0  0  0  0  0
  128.4604  134.4059  158.4701 H   0  0  0  0  0  0  0  0  0  0  0  0
  131.3172  133.8592  158.0758 H   0  0  0  0  0  0  0  0  0  0  0  0
  128.7516  133.2034  156.6325 H   0  0  0  0  0  0  0  0  0  0  0  0
  130.3589  133.6234  155.9615 H   0  0  0  0  0  0  0  0  0  0  0  0
  131.2201  131.4033  156.3456 H   0  0  0  0  0  0  0  0  0  0  0  0
  129.5301  131.0565  155.8571 H   0  0  0  0  0  0  0  0  0  0  0  0
  130.4289  130.0896  158.2066 H   0  0  0  0  0  0  0  0  0  0  0  0
  128.7991  130.8285  158.1429 H   0  0  0  0  0  0  0  0  0  0  0  0
  131.3563  131.9301  159.3008 H   0  0  0  0  0  0  0  0  0  0  0  0
  129.6687  132.2189  159.8087 H   0  0  0  0  0  0  0  0  0  0  0  0
  131.2313  136.8732  161.3780 H   0  0  0  0  0  0  0  0  0  0  0  0
  130.8464  134.4586  161.9902 H   0  0  0  0  0  0  0  0  0  0  0  0
  132.4673  134.0763  161.3552 H   0  0  0  0  0  0  0  0  0  0  0  0
  134.0288  135.5942  165.0612 H   0  0  0  0  0  0  0  0  0  0  0  0
  136.1180  136.8899  165.0436 H   0  0  0  0  0  0  0  0  0  0  0  0
  136.8526  138.0136  162.9782 H   0  0  0  0  0  0  0  0  0  0  0  0
  135.4990  137.8363  160.9334 H   0  0  0  0  0  0  0  0  0  0  0  0
  133.6679  135.7982  159.8956 H   0  0  0  0  0  0  0  0  0  0  0  0
  133.1706  137.4964  160.0825 H   0  0  0  0  0  0  0  0  0  0  0  0
  127.5024  135.7512  162.8049 H   0  0  0  0  0  0  0  0  0  0  0  0
  126.7655  136.9586  161.7275 H   0  0  0  0  0  0  0  0  0  0  0  0
  124.9368  135.7557  162.6308 H   0  0  0  0  0  0  0  0  0  0  0  0
  1  2  2  0
  2 28  1  0
  2  3  1  0
  3  4  1  0
  3 29  1  0
  3 30  1  0
  4  5  1  0
  4 31  1  0
  4 32  1  0
  5  6  1  6
  5  7  1  0
  5 27  1  0
  7 33  1  0
  8  7  1  0
  8  9  1  0
  8 15  2  0
  9 10  1  0
  9 34  1  0
 10 14  1  0
 10 11  1  0
 10 35  1  0
 11 12  1  0
 11 36  1  0
 11 37  1  0
 12 13  1  0
 12 38  1  0
 12 39  1  0
 13 14  1  0
 13 40  1  0
 13 41  1  0
 14 42  1  0
 14 43  1  0
 15 16  1  0
 15 17  1  0
 17 26  1  0
 17 18  1  0
 17 44  1  1
 18 19  1  0
 18 45  1  0
 18 46  1  0
 19 20  1  0
 20 25  2  0
 20 21  1  0
 21 22  2  0
 21 47  1  0
 22 23  1  0
 22 48  1  0
 23 24  2  0
 23 49  1  0
 24 25  1  0
 24 50  1  0
 25 26  1  0
 26 51  1  0
 26 52  1  0
 27 28  1  0
 27 53  1  0
 27 54  1  0
 28 55  1  0
M  CHG  1  15   1
M  END
>  <DOCK_score>  (1) 
-42.659939

>  <SMILES>  (1) 
O=C1CC[C@H](NC(NC2CCCC2)=[NH+]C2COc3ccccc3C2)CN1

$$$$
