CCc1ccc(-c2c[nH]c(Nc3ccc(O)c(C4CCCCC4)c3)[nH+]2)cc1
     RDKit          3D

 55 58  0  0  1  0  0  0  0  0999 V2000
  130.2585  128.5849  151.6400 C   0  0  0  0  0  0  0  0  0  0  0  0
  131.3496  129.6149  151.9381 C   0  0  0  0  0  0  0  0  0  0  0  0
  131.0273  130.3300  153.2247 C   0  0  0  0  0  0  0  0  0  0  0  0
  131.4939  129.8298  154.4267 C   0  0  0  0  0  0  0  0  0  0  0  0
  131.2058  130.4834  155.6076 C   0  0  0  0  0  0  0  0  0  0  0  0
  130.4343  131.6439  155.5884 C   0  0  0  0  0  0  0  0  0  0  0  0
  130.1170  132.3479  156.8550 C   0  0  0  0  0  0  0  0  0  0  0  0
  129.4466  131.8256  157.9121 C   0  0  0  0  0  0  0  0  0  0  0  0
  129.3754  132.8114  158.8655 N   0  0  0  0  0  0  0  0  0  0  0  0
  128.9537  132.7393  159.7360 H   0  0  0  0  0  0  0  0  0  0  0  0
  130.0050  133.9087  158.3630 C   0  0  0  0  0  0  0  0  0  0  0  0
  130.1543  135.1221  159.0139 N   0  0  0  0  0  0  0  0  0  0  0  0
  129.1895  135.5451  159.9361 C   0  0  0  0  0  0  0  0  0  0  0  0
  127.8746  135.7321  159.5296 C   0  0  0  0  0  0  0  0  0  0  0  0
  126.9230  136.1450  160.4408 C   0  0  0  0  0  0  0  0  0  0  0  0
  127.2813  136.3824  161.7594 C   0  0  0  0  0  0  0  0  0  0  0  0
  126.3442  136.7937  162.6549 O   0  0  0  0  0  0  0  0  0  0  0  0
  128.5956  136.2013  162.1652 C   0  0  0  0  0  0  0  0  0  0  0  0
  128.9843  136.4604  163.5980 C   0  0  0  0  0  0  0  0  0  0  0  0
  128.1827  135.5385  164.5188 C   0  0  0  0  0  0  0  0  0  0  0  0
  128.5773  135.8017  165.9733 C   0  0  0  0  0  0  0  0  0  0  0  0
  128.2791  137.2601  166.3268 C   0  0  0  0  0  0  0  0  0  0  0  0
  129.0808  138.1822  165.4060 C   0  0  0  0  0  0  0  0  0  0  0  0
  128.6862  137.9190  163.9514 C   0  0  0  0  0  0  0  0  0  0  0  0
  129.5479  135.7834  161.2563 C   0  0  0  0  0  0  0  0  0  0  0  0
  130.4512  133.6257  157.1633 N   0  0  0  0  0  0  0  0  0  0  0  0
  130.9400  134.2339  156.5871 H   0  0  0  0  0  0  0  0  0  0  0  0
  129.9623  132.1408  154.3747 C   0  0  0  0  0  0  0  0  0  0  0  0
  130.2611  131.4819  153.1995 C   0  0  0  0  0  0  0  0  0  0  0  0
  130.2089  127.8624  152.4547 H   0  0  0  0  0  0  0  0  0  0  0  0
  129.2977  129.0905  151.5436 H   0  0  0  0  0  0  0  0  0  0  0  0
  130.4918  128.0675  150.7094 H   0  0  0  0  0  0  0  0  0  0  0  0
  132.3104  129.1096  152.0341 H   0  0  0  0  0  0  0  0  0  0  0  0
  131.3993  130.3378  151.1231 H   0  0  0  0  0  0  0  0  0  0  0  0
  132.0883  128.9282  154.4407 H   0  0  0  0  0  0  0  0  0  0  0  0
  131.5741  130.0939  156.5451 H   0  0  0  0  0  0  0  0  0  0  0  0
  129.0455  130.8258  157.9891 H   0  0  0  0  0  0  0  0  0  0  0  0
  130.9272  135.6788  158.8308 H   0  0  0  0  0  0  0  0  0  0  0  0
  127.5959  135.5508  158.5021 H   0  0  0  0  0  0  0  0  0  0  0  0
  125.8997  136.2869  160.1258 H   0  0  0  0  0  0  0  0  0  0  0  0
  125.4587  136.8923  162.2806 H   0  0  0  0  0  0  0  0  0  0  0  0
  130.0492  136.2660  163.7264 H   0  0  0  0  0  0  0  0  0  0  0  0
  127.1178  135.7330  164.3903 H   0  0  0  0  0  0  0  0  0  0  0  0
  128.3950  134.4994  164.2670 H   0  0  0  0  0  0  0  0  0  0  0  0
  129.6422  135.6070  166.1018 H   0  0  0  0  0  0  0  0  0  0  0  0
  128.0062  135.1448  166.6293 H   0  0  0  0  0  0  0  0  0  0  0  0
  128.5603  137.4476  167.3631 H   0  0  0  0  0  0  0  0  0  0  0  0
  127.2143  137.4547  166.1983 H   0  0  0  0  0  0  0  0  0  0  0  0
  130.1455  137.9876  165.5344 H   0  0  0  0  0  0  0  0  0  0  0  0
  128.8685  139.2212  165.6577 H   0  0  0  0  0  0  0  0  0  0  0  0
  129.2574  138.5758  163.2953 H   0  0  0  0  0  0  0  0  0  0  0  0
  127.6215  138.1136  163.8230 H   0  0  0  0  0  0  0  0  0  0  0  0
  130.5708  135.6420  161.5723 H   0  0  0  0  0  0  0  0  0  0  0  0
  129.3638  133.0396  154.3542 H   0  0  0  0  0  0  0  0  0  0  0  0
  129.8963  131.8663  152.2584 H   0  0  0  0  0  0  0  0  0  0  0  0
  1  2  1  0
  1 30  1  0
  1 31  1  0
  1 32  1  0
  2  3  1  0
  2 33  1  0
  2 34  1  0
  3 29  2  0
  3  4  1  0
  4  5  2  0
  4 35  1  0
  5  6  1  0
  5 36  1  0
  6  7  1  0
  6 28  2  0
  7 26  1  0
  7  8  2  0
  8  9  1  0
  8 37  1  0
  9 10  1  0
  9 11  1  0
 11 12  1  0
 11 26  2  0
 12 13  1  0
 12 38  1  0
 13 25  1  0
 13 14  2  0
 14 15  1  0
 14 39  1  0
 15 16  2  0
 15 40  1  0
 16 17  1  0
 16 18  1  0
 17 41  1  0
 18 19  1  0
 18 25  2  0
 19 24  1  0
 19 20  1  0
 19 42  1  0
 20 21  1  0
 20 43  1  0
 20 44  1  0
 21 22  1  0
 21 45  1  0
 21 46  1  0
 22 23  1  0
 22 47  1  0
 22 48  1  0
 23 24  1  0
 23 49  1  0
 23 50  1  0
 24 51  1  0
 24 52  1  0
 25 53  1  0
 26 27  1  0
 28 29  1  0
 28 54  1  0
 29 55  1  0
M  CHG  1  26   1
M  END
>  <DOCK_score>  (1) 
-56.507645

>  <SMILES>  (1) 
CCc1ccc(-c2c[nH]c(Nc3ccc(O)c(C4CCCCC4)c3)[nH+]2)cc1

$$$$
