O[C@H](CCc1ccccn1)c1c(Cl)cccc1N1CC[NH+](C(c2ccccc2)c2ccccc2)CC1
     RDKit          3D

 69 73  0  0  1  0  0  0  0  0999 V2000
  133.5313  140.6149  163.5335 O   0  0  0  0  0  0  0  0  0  0  0  0
  134.0701  139.3801  163.0573 C   0  0  2  0  0  0  0  0  0  0  0  0
  133.2947  138.6142  163.0756 H   0  0  0  0  0  0  0  0  0  0  0  0
  135.2323  138.9510  163.9550 C   0  0  0  0  0  0  0  0  0  0  0  0
  134.6819  138.2979  165.2246 C   0  0  0  0  0  0  0  0  0  0  0  0
  135.8267  137.8751  166.1088 C   0  0  0  0  0  0  0  0  0  0  0  0
  135.6560  137.8461  167.4802 C   0  0  0  0  0  0  0  0  0  0  0  0
  136.7153  137.4554  168.2845 C   0  0  0  0  0  0  0  0  0  0  0  0
  137.9119  137.1067  167.6768 C   0  0  0  0  0  0  0  0  0  0  0  0
  138.0082  137.1600  166.2994 C   0  0  0  0  0  0  0  0  0  0  0  0
  136.9778  137.5320  165.5650 N   0  0  0  0  0  0  0  0  0  0  0  0
  134.5657  139.5595  161.6454 C   0  0  0  0  0  0  0  0  0  0  0  0
  135.5570  140.4834  161.3721 C   0  0  0  0  0  0  0  0  0  0  0  0
  136.2315  141.4374  162.6560 Cl  0  0  0  0  0  0  0  0  0  0  0  0
  136.0080  140.6522  160.0747 C   0  0  0  0  0  0  0  0  0  0  0  0
  135.4727  139.8944  159.0493 C   0  0  0  0  0  0  0  0  0  0  0  0
  134.4855  138.9665  159.3169 C   0  0  0  0  0  0  0  0  0  0  0  0
  134.0300  138.7939  160.6180 C   0  0  0  0  0  0  0  0  0  0  0  0
  133.0314  137.8565  160.8913 N   0  0  0  0  0  0  0  0  0  0  0  0
  131.7764  138.2111  160.2135 C   0  0  0  0  0  0  0  0  0  0  0  0
  130.6945  137.1948  160.5854 C   0  0  0  0  0  0  0  0  0  0  0  0
  131.1260  135.8501  160.1816 N   0  0  0  0  0  0  0  0  0  0  0  0
  131.2883  135.8340  159.1859 H   0  0  0  0  0  0  0  0  0  0  0  0
  130.0794  134.8773  160.5226 C   0  0  0  0  0  0  0  0  0  0  0  0
  128.8066  135.2348  159.7994 C   0  0  0  0  0  0  0  0  0  0  0  0
  127.5820  134.9204  160.3586 C   0  0  0  0  0  0  0  0  0  0  0  0
  126.4145  135.2528  159.6974 C   0  0  0  0  0  0  0  0  0  0  0  0
  126.4710  135.8902  158.4729 C   0  0  0  0  0  0  0  0  0  0  0  0
  127.6959  136.2003  157.9106 C   0  0  0  0  0  0  0  0  0  0  0  0
  128.8635  135.8725  158.5742 C   0  0  0  0  0  0  0  0  0  0  0  0
  130.5219  133.4975  160.1083 C   0  0  0  0  0  0  0  0  0  0  0  0
  130.0887  132.3914  160.8151 C   0  0  0  0  0  0  0  0  0  0  0  0
  130.4908  131.1254  160.4321 C   0  0  0  0  0  0  0  0  0  0  0  0
  131.3344  130.9665  159.3486 C   0  0  0  0  0  0  0  0  0  0  0  0
  131.7717  132.0731  158.6448 C   0  0  0  0  0  0  0  0  0  0  0  0
  131.3654  133.3386  159.0247 C   0  0  0  0  0  0  0  0  0  0  0  0
  132.3671  135.5004  160.8853 C   0  0  0  0  0  0  0  0  0  0  0  0
  133.4629  136.5026  160.5159 C   0  0  0  0  0  0  0  0  0  0  0  0
  134.1913  141.3108  163.6563 H   0  0  0  0  0  0  0  0  0  0  0  0
  135.8589  138.2364  163.4213 H   0  0  0  0  0  0  0  0  0  0  0  0
  135.8256  139.8248  164.2239 H   0  0  0  0  0  0  0  0  0  0  0  0
  134.0553  139.0123  165.7582 H   0  0  0  0  0  0  0  0  0  0  0  0
  134.0886  137.4240  164.9557 H   0  0  0  0  0  0  0  0  0  0  0  0
  134.7096  138.1249  167.9194 H   0  0  0  0  0  0  0  0  0  0  0  0
  136.6110  137.4236  169.3590 H   0  0  0  0  0  0  0  0  0  0  0  0
  138.7579  136.7970  168.2726 H   0  0  0  0  0  0  0  0  0  0  0  0
  138.9367  136.8900  165.8184 H   0  0  0  0  0  0  0  0  0  0  0  0
  136.7794  141.3778  159.8626 H   0  0  0  0  0  0  0  0  0  0  0  0
  135.8269  140.0285  158.0379 H   0  0  0  0  0  0  0  0  0  0  0  0
  134.0678  138.3756  158.5151 H   0  0  0  0  0  0  0  0  0  0  0  0
  131.9302  138.2002  159.1344 H   0  0  0  0  0  0  0  0  0  0  0  0
  131.4629  139.2070  160.5264 H   0  0  0  0  0  0  0  0  0  0  0  0
  129.7666  137.4479  160.0725 H   0  0  0  0  0  0  0  0  0  0  0  0
  130.5314  137.2158  161.6630 H   0  0  0  0  0  0  0  0  0  0  0  0
  129.9035  134.8948  161.5981 H   0  0  0  0  0  0  0  0  0  0  0  0
  127.5376  134.4181  161.3137 H   0  0  0  0  0  0  0  0  0  0  0  0
  125.4577  135.0102  160.1361 H   0  0  0  0  0  0  0  0  0  0  0  0
  125.5592  136.1460  157.9536 H   0  0  0  0  0  0  0  0  0  0  0  0
  127.7406  136.6981  156.9532 H   0  0  0  0  0  0  0  0  0  0  0  0
  129.8202  136.1143  158.1352 H   0  0  0  0  0  0  0  0  0  0  0  0
  129.4333  132.5159  161.6644 H   0  0  0  0  0  0  0  0  0  0  0  0
  130.1494  130.2610  160.9821 H   0  0  0  0  0  0  0  0  0  0  0  0
  131.6521  129.9778  159.0519 H   0  0  0  0  0  0  0  0  0  0  0  0
  132.4310  131.9489  157.7985 H   0  0  0  0  0  0  0  0  0  0  0  0
  131.7073  134.2032  158.4751 H   0  0  0  0  0  0  0  0  0  0  0  0
  132.1953  135.5301  161.9613 H   0  0  0  0  0  0  0  0  0  0  0  0
  132.6791  134.4973  160.5947 H   0  0  0  0  0  0  0  0  0  0  0  0
  133.6444  136.4635  159.4418 H   0  0  0  0  0  0  0  0  0  0  0  0
  134.3797  136.2522  161.0494 H   0  0  0  0  0  0  0  0  0  0  0  0
  1  2  1  0
  1 39  1  0
  2  3  1  6
  2  4  1  0
  2 12  1  0
  4  5  1  0
  4 40  1  0
  4 41  1  0
  5  6  1  0
  5 42  1  0
  5 43  1  0
  6 11  1  0
  6  7  2  0
  7  8  1  0
  7 44  1  0
  8  9  2  0
  8 45  1  0
  9 10  1  0
  9 46  1  0
 10 11  2  0
 10 47  1  0
 12 18  1  0
 12 13  2  0
 13 14  1  0
 13 15  1  0
 15 16  2  0
 15 48  1  0
 16 17  1  0
 16 49  1  0
 17 18  2  0
 17 50  1  0
 18 19  1  0
 19 38  1  0
 19 20  1  0
 20 21  1  0
 20 51  1  0
 20 52  1  0
 21 22  1  0
 21 53  1  0
 21 54  1  0
 22 23  1  0
 22 24  1  0
 22 37  1  0
 24 25  1  0
 24 31  1  0
 24 55  1  0
 25 30  1  0
 25 26  2  0
 26 27  1  0
 26 56  1  0
 27 28  2  0
 27 57  1  0
 28 29  1  0
 28 58  1  0
 29 30  2  0
 29 59  1  0
 30 60  1  0
 31 36  1  0
 31 32  2  0
 32 33  1  0
 32 61  1  0
 33 34  2  0
 33 62  1  0
 34 35  1  0
 34 63  1  0
 35 36  2  0
 35 64  1  0
 36 65  1  0
 37 38  1  0
 37 66  1  0
 37 67  1  0
 38 68  1  0
 38 69  1  0
M  CHG  1  22   1
M  END
>  <DOCK_score>  (1) 
-56.815353

>  <SMILES>  (1) 
O[C@H](CCc1ccccn1)c1c(Cl)cccc1N1CC[NH+](C(c2ccccc2)c2ccccc2)CC1

$$$$
