Clc1ccc2c(c1)C[C@H](Nc1ccc(-c3n[nH]cc3C[NH2+]CCBr)o1)C2
     RDKit          3D

 47 50  0  0  1  0  0  0  0  0999 V2000
  130.6494  142.1816  164.3342 Cl  0  0  0  0  0  0  0  0  0  0  0  0
  129.3392  141.0458  164.2498 C   0  0  0  0  0  0  0  0  0  0  0  0
  128.2271  141.2099  165.0567 C   0  0  0  0  0  0  0  0  0  0  0  0
  127.1862  140.3053  164.9870 C   0  0  0  0  0  0  0  0  0  0  0  0
  127.2533  139.2306  164.1160 C   0  0  0  0  0  0  0  0  0  0  0  0
  128.3615  139.0694  163.3056 C   0  0  0  0  0  0  0  0  0  0  0  0
  129.4052  139.9767  163.3763 C   0  0  0  0  0  0  0  0  0  0  0  0
  128.1919  137.8348  162.4463 C   0  0  0  0  0  0  0  0  0  0  0  0
  127.0728  137.0172  163.1337 C   0  0  2  0  0  0  0  0  0  0  0  0
  127.4857  136.3049  163.8482 H   0  0  0  0  0  0  0  0  0  0  0  0
  126.2454  136.3319  162.1379 N   0  0  0  0  0  0  0  0  0  0  0  0
  126.8218  135.4125  161.2691 C   0  0  0  0  0  0  0  0  0  0  0  0
  126.2003  134.3340  160.7303 C   0  0  0  0  0  0  0  0  0  0  0  0
  127.1449  133.6805  159.9142 C   0  0  0  0  0  0  0  0  0  0  0  0
  128.2978  134.3952  159.9966 C   0  0  0  0  0  0  0  0  0  0  0  0
  129.5635  134.0791  159.3030 C   0  0  0  0  0  0  0  0  0  0  0  0
  129.7714  133.0598  158.4929 N   0  0  0  0  0  0  0  0  0  0  0  0
  131.0979  133.1217  158.0479 N   0  0  0  0  0  0  0  0  0  0  0  0
  131.5240  132.4968  157.4405 H   0  0  0  0  0  0  0  0  0  0  0  0
  131.6815  134.2022  158.6103 C   0  0  0  0  0  0  0  0  0  0  0  0
  130.7628  134.8177  159.3852 C   0  0  0  0  0  0  0  0  0  0  0  0
  130.9809  136.0689  160.1965 C   0  0  0  0  0  0  0  0  0  0  0  0
  132.3624  136.5345  160.0166 N   0  0  0  0  0  0  0  0  0  0  0  0
  133.0018  135.8178  160.3254 H   0  0  0  0  0  0  0  0  0  0  0  0
  132.5259  136.7335  159.0411 H   0  0  0  0  0  0  0  0  0  0  0  0
  132.5748  137.7541  160.8075 C   0  0  0  0  0  0  0  0  0  0  0  0
  134.0139  138.2392  160.6201 C   0  0  0  0  0  0  0  0  0  0  0  0
  134.3325  138.6270  158.7193 Br  0  0  0  0  0  0  0  0  0  0  0  0
  128.0870  135.4459  160.8172 O   0  0  0  0  0  0  0  0  0  0  0  0
  126.2639  138.1143  163.8580 C   0  0  0  0  0  0  0  0  0  0  0  0
  128.1731  142.0448  165.7398 H   0  0  0  0  0  0  0  0  0  0  0  0
  126.3186  140.4337  165.6174 H   0  0  0  0  0  0  0  0  0  0  0  0
  130.2732  139.8487  162.7467 H   0  0  0  0  0  0  0  0  0  0  0  0
  127.9013  138.1156  161.4340 H   0  0  0  0  0  0  0  0  0  0  0  0
  129.1155  137.2562  162.4289 H   0  0  0  0  0  0  0  0  0  0  0  0
  125.2951  136.5197  162.0847 H   0  0  0  0  0  0  0  0  0  0  0  0
  125.1761  134.0335  160.8951 H   0  0  0  0  0  0  0  0  0  0  0  0
  126.9836  132.7836  159.3347 H   0  0  0  0  0  0  0  0  0  0  0  0
  132.7028  134.5208  158.4625 H   0  0  0  0  0  0  0  0  0  0  0  0
  130.2901  136.8432  159.8630 H   0  0  0  0  0  0  0  0  0  0  0  0
  130.8042  135.8539  161.2504 H   0  0  0  0  0  0  0  0  0  0  0  0
  131.8841  138.5285  160.4738 H   0  0  0  0  0  0  0  0  0  0  0  0
  132.3983  137.5390  161.8613 H   0  0  0  0  0  0  0  0  0  0  0  0
  134.1715  139.1441  161.2070 H   0  0  0  0  0  0  0  0  0  0  0  0
  134.7046  137.4647  160.9538 H   0  0  0  0  0  0  0  0  0  0  0  0
  125.8691  137.7335  164.7999 H   0  0  0  0  0  0  0  0  0  0  0  0
  125.4514  138.4681  163.2235 H   0  0  0  0  0  0  0  0  0  0  0  0
  1  2  1  0
  2  7  2  0
  2  3  1  0
  3  4  2  0
  3 31  1  0
  4  5  1  0
  4 32  1  0
  5 30  1  0
  5  6  2  0
  6  7  1  0
  6  8  1  0
  7 33  1  0
  8  9  1  0
  8 34  1  0
  8 35  1  0
  9 10  1  1
  9 11  1  0
  9 30  1  0
 11 12  1  0
 11 36  1  0
 12 29  1  0
 12 13  2  0
 13 14  1  0
 13 37  1  0
 14 15  2  0
 14 38  1  0
 15 16  1  0
 15 29  1  0
 16 21  1  0
 16 17  2  0
 17 18  1  0
 18 19  1  0
 18 20  1  0
 20 21  2  0
 20 39  1  0
 21 22  1  0
 22 23  1  0
 22 40  1  0
 22 41  1  0
 23 24  1  0
 23 25  1  0
 23 26  1  0
 26 27  1  0
 26 42  1  0
 26 43  1  0
 27 28  1  0
 27 44  1  0
 27 45  1  0
 30 46  1  0
 30 47  1  0
M  CHG  1  23   1
M  END
>  <DOCK_score>  (1) 
-46.00378

>  <SMILES>  (1) 
Clc1ccc2c(c1)C[C@H](Nc1ccc(-c3n[nH]cc3C[NH2+]CCBr)o1)C2

$$$$
