CCc1ccc(-c2c[nH]c(N[C@H]3[C@H](O)[C@@H](O)[C@@H](O)[C@@H](O)[C@@H]3O)[nH+]2)cc1
     RDKit          3D

 49 51  0  0  1  0  0  0  0  0999 V2000
  130.1523  129.1678  151.6703 C   0  0  0  0  0  0  0  0  0  0  0  0
  131.4607  129.7188  152.2390 C   0  0  0  0  0  0  0  0  0  0  0  0
  131.1811  130.4461  153.5290 C   0  0  0  0  0  0  0  0  0  0  0  0
  131.2180  129.7593  154.7292 C   0  0  0  0  0  0  0  0  0  0  0  0
  130.9628  130.4202  155.9135 C   0  0  0  0  0  0  0  0  0  0  0  0
  130.6678  131.7822  155.8988 C   0  0  0  0  0  0  0  0  0  0  0  0
  130.3926  132.4981  157.1685 C   0  0  0  0  0  0  0  0  0  0  0  0
  129.8363  131.9616  158.2828 C   0  0  0  0  0  0  0  0  0  0  0  0
  129.7637  132.9671  159.2159 N   0  0  0  0  0  0  0  0  0  0  0  0
  129.4109  132.8910  160.1163 H   0  0  0  0  0  0  0  0  0  0  0  0
  130.2784  134.0897  158.6440 C   0  0  0  0  0  0  0  0  0  0  0  0
  130.3879  135.3277  159.2539 N   0  0  0  0  0  0  0  0  0  0  0  0
  129.9276  135.5082  160.6330 C   0  0  1  0  0  0  0  0  0  0  0  0
  130.1994  134.6337  161.2241 H   0  0  0  0  0  0  0  0  0  0  0  0
  130.5858  136.7530  161.2314 C   0  0  2  0  0  0  0  0  0  0  0  0
  130.3139  137.6275  160.6403 H   0  0  0  0  0  0  0  0  0  0  0  0
  132.0057  136.5931  161.2203 O   0  0  0  0  0  0  0  0  0  0  0  0
  130.1050  136.9414  162.6717 C   0  0  1  0  0  0  0  0  0  0  0  0
  130.3769  136.0669  163.2628 H   0  0  0  0  0  0  0  0  0  0  0  0
  130.7197  138.1042  163.2307 O   0  0  0  0  0  0  0  0  0  0  0  0
  128.5847  137.1127  162.6836 C   0  0  1  0  0  0  0  0  0  0  0  0
  128.2423  137.2469  163.7097 H   0  0  0  0  0  0  0  0  0  0  0  0
  128.2284  138.2591  161.9088 O   0  0  0  0  0  0  0  0  0  0  0  0
  127.9267  135.8679  162.0851 C   0  0  1  0  0  0  0  0  0  0  0  0
  128.1985  134.9934  162.6762 H   0  0  0  0  0  0  0  0  0  0  0  0
  126.5067  136.0278  162.0963 O   0  0  0  0  0  0  0  0  0  0  0  0
  128.4072  135.6794  160.6448 C   0  0  2  0  0  0  0  0  0  0  0  0
  128.1355  136.5538  160.0538 H   0  0  0  0  0  0  0  0  0  0  0  0
  127.7926  134.5168  160.0860 O   0  0  0  0  0  0  0  0  0  0  0  0
  130.6478  133.8069  157.4187 N   0  0  0  0  0  0  0  0  0  0  0  0
  131.0430  134.4329  156.7918 H   0  0  0  0  0  0  0  0  0  0  0  0
  130.6265  132.4680  154.6861 C   0  0  0  0  0  0  0  0  0  0  0  0
  130.8895  131.7981  153.5084 C   0  0  0  0  0  0  0  0  0  0  0  0
  130.3546  128.6417  150.7373 H   0  0  0  0  0  0  0  0  0  0  0  0
  129.7068  128.4780  152.3872 H   0  0  0  0  0  0  0  0  0  0  0  0
  129.4632  129.9908  151.4814 H   0  0  0  0  0  0  0  0  0  0  0  0
  131.9070  130.4087  151.5223 H   0  0  0  0  0  0  0  0  0  0  0  0
  132.1506  128.8958  152.4280 H   0  0  0  0  0  0  0  0  0  0  0  0
  131.4468  128.7038  154.7393 H   0  0  0  0  0  0  0  0  0  0  0  0
  130.9921  129.8830  156.8500 H   0  0  0  0  0  0  0  0  0  0  0  0
  129.5119  130.9395  158.4117 H   0  0  0  0  0  0  0  0  0  0  0  0
  130.7695  136.0756  158.7681 H   0  0  0  0  0  0  0  0  0  0  0  0
  132.3199  135.8322  161.7278 H   0  0  0  0  0  0  0  0  0  0  0  0
  131.6857  138.0652  163.2550 H   0  0  0  0  0  0  0  0  0  0  0  0
  127.2771  138.4290  161.8721 H   0  0  0  0  0  0  0  0  0  0  0  0
  126.1925  136.7887  161.5888 H   0  0  0  0  0  0  0  0  0  0  0  0
  128.0522  134.3353  159.1722 H   0  0  0  0  0  0  0  0  0  0  0  0
  130.3937  133.5224  154.6685 H   0  0  0  0  0  0  0  0  0  0  0  0
  130.8625  132.3295  152.5685 H   0  0  0  0  0  0  0  0  0  0  0  0
  1  2  1  0
  1 34  1  0
  1 35  1  0
  1 36  1  0
  2  3  1  0
  2 37  1  0
  2 38  1  0
  3 33  2  0
  3  4  1  0
  4  5  2  0
  4 39  1  0
  5  6  1  0
  5 40  1  0
  6  7  1  0
  6 32  2  0
  7 30  1  0
  7  8  2  0
  8  9  1  0
  8 41  1  0
  9 10  1  0
  9 11  1  0
 11 12  1  0
 11 30  2  0
 12 13  1  0
 12 42  1  0
 13 14  1  1
 13 27  1  0
 13 15  1  0
 15 16  1  6
 15 17  1  0
 15 18  1  0
 17 43  1  0
 18 19  1  1
 18 20  1  0
 18 21  1  0
 20 44  1  0
 21 22  1  1
 21 23  1  0
 21 24  1  0
 23 45  1  0
 24 25  1  1
 24 26  1  0
 24 27  1  0
 26 46  1  0
 27 28  1  6
 27 29  1  0
 29 47  1  0
 30 31  1  0
 32 33  1  0
 32 48  1  0
 33 49  1  0
M  CHG  1  30   1
M  END
>  <DOCK_score>  (1) 
-48.112637

>  <SMILES>  (1) 
CCc1ccc(-c2c[nH]c(N[C@H]3[C@H](O)[C@@H](O)[C@@H](O)[C@@H](O)[C@@H]3O)[nH+]2)cc1

$$$$
