ClCC=C[C@H](Nc1[nH]cc(-c2cccnc2)[nH+]1)c1ccccc1
     RDKit          3D

 41 43  0  0  1  0  0  0  0  0999 V2000
  128.3435  139.8784  162.0313 Cl  0  0  0  0  0  0  0  0  0  0  0  0
  129.8615  138.9247  161.8384 C   0  0  0  0  0  0  0  0  0  0  0  0
  129.5199  137.5113  161.4426 C   0  0  0  0  0  0  0  0  0  0  0  0
  129.4179  137.1922  160.1762 C   0  0  0  0  0  0  0  0  0  0  0  0
  129.0763  135.7788  159.7805 C   0  0  2  0  0  0  0  0  0  0  0  0
  128.9519  135.1706  160.6764 H   0  0  0  0  0  0  0  0  0  0  0  0
  130.1580  135.2260  158.9614 N   0  0  0  0  0  0  0  0  0  0  0  0
  130.0678  133.9322  158.4775 C   0  0  0  0  0  0  0  0  0  0  0  0
  129.4179  132.9022  159.0848 N   0  0  0  0  0  0  0  0  0  0  0  0
  128.9388  132.9422  159.9272 H   0  0  0  0  0  0  0  0  0  0  0  0
  129.5635  131.7961  158.2831 C   0  0  0  0  0  0  0  0  0  0  0  0
  130.3046  132.1796  157.2143 C   0  0  0  0  0  0  0  0  0  0  0  0
  130.7201  131.3132  156.0841 C   0  0  0  0  0  0  0  0  0  0  0  0
  130.3268  131.6138  154.7767 C   0  0  0  0  0  0  0  0  0  0  0  0
  130.7457  130.7775  153.7567 C   0  0  0  0  0  0  0  0  0  0  0  0
  131.5231  129.6748  154.0619 C   0  0  0  0  0  0  0  0  0  0  0  0
  131.8740  129.4135  155.3062 N   0  0  0  0  0  0  0  0  0  0  0  0
  131.5040  130.1833  156.3091 C   0  0  0  0  0  0  0  0  0  0  0  0
  130.5991  133.4957  157.3616 N   0  0  0  0  0  0  0  0  0  0  0  0
  131.1192  134.0287  156.7401 H   0  0  0  0  0  0  0  0  0  0  0  0
  127.7942  135.7747  158.9885 C   0  0  0  0  0  0  0  0  0  0  0  0
  126.5816  135.6347  159.6373 C   0  0  0  0  0  0  0  0  0  0  0  0
  125.4052  135.6354  158.9113 C   0  0  0  0  0  0  0  0  0  0  0  0
  125.4421  135.7669  157.5356 C   0  0  0  0  0  0  0  0  0  0  0  0
  126.6551  135.9017  156.8864 C   0  0  0  0  0  0  0  0  0  0  0  0
  127.8310  135.9054  157.6128 C   0  0  0  0  0  0  0  0  0  0  0  0
  130.4074  138.9160  162.7819 H   0  0  0  0  0  0  0  0  0  0  0  0
  130.4802  139.3792  161.0648 H   0  0  0  0  0  0  0  0  0  0  0  0
  129.3591  136.7614  162.2032 H   0  0  0  0  0  0  0  0  0  0  0  0
  129.5787  137.9421  159.4158 H   0  0  0  0  0  0  0  0  0  0  0  0
  130.9373  135.7668  158.7582 H   0  0  0  0  0  0  0  0  0  0  0  0
  129.1670  130.8091  158.4705 H   0  0  0  0  0  0  0  0  0  0  0  0
  129.7153  132.4790  154.5675 H   0  0  0  0  0  0  0  0  0  0  0  0
  130.4650  130.9811  152.7338 H   0  0  0  0  0  0  0  0  0  0  0  0
  131.8479  129.0174  153.2689 H   0  0  0  0  0  0  0  0  0  0  0  0
  131.8112  129.9368  157.3147 H   0  0  0  0  0  0  0  0  0  0  0  0
  126.5531  135.5283  160.7116 H   0  0  0  0  0  0  0  0  0  0  0  0
  124.4575  135.5305  159.4185 H   0  0  0  0  0  0  0  0  0  0  0  0
  124.5231  135.7648  156.9681 H   0  0  0  0  0  0  0  0  0  0  0  0
  126.6839  136.0045  155.8117 H   0  0  0  0  0  0  0  0  0  0  0  0
  128.7788  136.0107  157.1057 H   0  0  0  0  0  0  0  0  0  0  0  0
  1  2  1  0
  2  3  1  0
  2 27  1  0
  2 28  1  0
  3  4  2  0
  3 29  1  0
  4  5  1  0
  4 30  1  0
  5  6  1  1
  5  7  1  0
  5 21  1  0
  7 31  1  0
  8  7  1  0
  8 19  2  0
  8  9  1  0
  9 10  1  0
  9 11  1  0
 11 12  2  0
 11 32  1  0
 12 13  1  0
 12 19  1  0
 13 18  1  0
 13 14  2  0
 14 15  1  0
 14 33  1  0
 15 16  2  0
 15 34  1  0
 16 17  1  0
 16 35  1  0
 17 18  2  0
 18 36  1  0
 19 20  1  0
 21 26  1  0
 21 22  2  0
 22 23  1  0
 22 37  1  0
 23 24  2  0
 23 38  1  0
 24 25  1  0
 24 39  1  0
 25 26  2  0
 25 40  1  0
 26 41  1  0
M  CHG  1  19   1
M  END
>  <DOCK_score>  (1) 
-58.411896

>  <SMILES>  (1) 
ClCC=C[C@H](Nc1[nH]cc(-c2cccnc2)[nH+]1)c1ccccc1

$$$$
