Cc1cccnc1C[C@@H](Nc1[nH]cc(-c2ccc(N)cc2)[nH+]1)c1ccnn1C
     RDKit          3D

 52 55  0  0  1  0  0  0  0  0999 V2000
  126.4714  135.7625  158.8896 C   0  0  0  0  0  0  0  0  0  0  0  0
  126.8260  134.3432  159.2517 C   0  0  0  0  0  0  0  0  0  0  0  0
  125.9315  133.3120  159.0079 C   0  0  0  0  0  0  0  0  0  0  0  0
  126.3001  132.0223  159.3578 C   0  0  0  0  0  0  0  0  0  0  0  0
  127.5384  131.8085  159.9338 C   0  0  0  0  0  0  0  0  0  0  0  0
  128.3660  132.8129  160.1459 N   0  0  0  0  0  0  0  0  0  0  0  0
  128.0466  134.0531  159.8310 C   0  0  0  0  0  0  0  0  0  0  0  0
  129.0265  135.1659  160.1003 C   0  0  0  0  0  0  0  0  0  0  0  0
  130.4535  134.6211  160.0125 C   0  0  1  0  0  0  0  0  0  0  0  0
  130.4941  133.6331  160.4713 H   0  0  0  0  0  0  0  0  0  0  0  0
  130.8535  134.5234  158.6067 N   0  0  0  0  0  0  0  0  0  0  0  0
  130.6127  133.3588  157.8977 C   0  0  0  0  0  0  0  0  0  0  0  0
  130.0149  132.2403  158.3906 N   0  0  0  0  0  0  0  0  0  0  0  0
  129.6840  132.1161  159.2939 H   0  0  0  0  0  0  0  0  0  0  0  0
  129.9669  131.3186  157.3716 C   0  0  0  0  0  0  0  0  0  0  0  0
  130.5315  131.9028  156.2860 C   0  0  0  0  0  0  0  0  0  0  0  0
  130.6955  131.2837  154.9479 C   0  0  0  0  0  0  0  0  0  0  0  0
  130.0960  131.8649  153.8316 C   0  0  0  0  0  0  0  0  0  0  0  0
  130.2550  131.2913  152.5878 C   0  0  0  0  0  0  0  0  0  0  0  0
  131.0020  130.1274  152.4485 C   0  0  0  0  0  0  0  0  0  0  0  0
  131.1565  129.5445  151.1885 N   0  0  0  0  0  0  0  0  0  0  0  0
  131.5959  129.5430  153.5609 C   0  0  0  0  0  0  0  0  0  0  0  0
  131.4447  130.1166  154.8057 C   0  0  0  0  0  0  0  0  0  0  0  0
  130.9229  133.1521  156.6410 N   0  0  0  0  0  0  0  0  0  0  0  0
  131.3589  133.7921  156.0568 H   0  0  0  0  0  0  0  0  0  0  0  0
  131.3916  135.5507  160.7383 C   0  0  0  0  0  0  0  0  0  0  0  0
  131.6046  136.8552  160.4486 C   0  0  0  0  0  0  0  0  0  0  0  0
  132.5446  137.3502  161.3585 C   0  0  0  0  0  0  0  0  0  0  0  0
  132.8838  136.3778  162.1655 N   0  0  0  0  0  0  0  0  0  0  0  0
  132.1655  135.2327  161.7971 N   0  0  0  0  0  0  0  0  0  0  0  0
  132.2432  133.9212  162.4451 C   0  0  0  0  0  0  0  0  0  0  0  0
  126.7964  135.9694  157.8699 H   0  0  0  0  0  0  0  0  0  0  0  0
  125.3922  135.8969  158.9614 H   0  0  0  0  0  0  0  0  0  0  0  0
  126.9694  136.4476  159.5757 H   0  0  0  0  0  0  0  0  0  0  0  0
  124.9705  133.5091  158.5560 H   0  0  0  0  0  0  0  0  0  0  0  0
  125.6286  131.1949  159.1823 H   0  0  0  0  0  0  0  0  0  0  0  0
  127.8333  130.8067  160.2089 H   0  0  0  0  0  0  0  0  0  0  0  0
  128.8524  135.5697  161.0976 H   0  0  0  0  0  0  0  0  0  0  0  0
  128.8927  135.9549  159.3602 H   0  0  0  0  0  0  0  0  0  0  0  0
  131.2869  135.2747  158.1724 H   0  0  0  0  0  0  0  0  0  0  0  0
  129.5544  130.3219  157.4245 H   0  0  0  0  0  0  0  0  0  0  0  0
  129.5115  132.7665  153.9402 H   0  0  0  0  0  0  0  0  0  0  0  0
  129.7950  131.7439  151.7220 H   0  0  0  0  0  0  0  0  0  0  0  0
  131.6779  128.7325  151.0903 H   0  0  0  0  0  0  0  0  0  0  0  0
  130.7424  129.9518  150.4116 H   0  0  0  0  0  0  0  0  0  0  0  0
  132.1760  128.6388  153.4503 H   0  0  0  0  0  0  0  0  0  0  0  0
  131.9066  129.6625  155.6698 H   0  0  0  0  0  0  0  0  0  0  0  0
  131.1326  137.4151  159.6549 H   0  0  0  0  0  0  0  0  0  0  0  0
  132.9251  138.3604  161.3894 H   0  0  0  0  0  0  0  0  0  0  0  0
  133.0227  133.3263  161.9692 H   0  0  0  0  0  0  0  0  0  0  0  0
  132.4789  134.0511  163.5013 H   0  0  0  0  0  0  0  0  0  0  0  0
  131.2853  133.4101  162.3469 H   0  0  0  0  0  0  0  0  0  0  0  0
  1  2  1  0
  1 32  1  0
  1 33  1  0
  1 34  1  0
  2  7  2  0
  2  3  1  0
  3  4  2  0
  3 35  1  0
  4  5  1  0
  4 36  1  0
  5  6  2  0
  5 37  1  0
  6  7  1  0
  7  8  1  0
  8  9  1  0
  8 38  1  0
  8 39  1  0
  9 10  1  1
  9 11  1  0
  9 26  1  0
 11 40  1  0
 12 11  1  0
 12 24  2  0
 12 13  1  0
 13 14  1  0
 13 15  1  0
 15 16  2  0
 15 41  1  0
 16 17  1  0
 16 24  1  0
 17 23  1  0
 17 18  2  0
 18 19  1  0
 18 42  1  0
 19 20  2  0
 19 43  1  0
 20 21  1  0
 20 22  1  0
 21 44  1  0
 21 45  1  0
 22 23  2  0
 22 46  1  0
 23 47  1  0
 24 25  1  0
 26 30  1  0
 26 27  2  0
 27 28  1  0
 27 48  1  0
 28 29  2  0
 28 49  1  0
 29 30  1  0
 30 31  1  0
 31 50  1  0
 31 51  1  0
 31 52  1  0
M  CHG  1  24   1
M  END
>  <DOCK_score>  (1) 
-58.61338

>  <SMILES>  (1) 
Cc1cccnc1C[C@@H](Nc1[nH]cc(-c2ccc(N)cc2)[nH+]1)c1ccnn1C

$$$$
