CCC=CCC[C@@H](Nc1[nH]cc(-c2ccc(N)cc2)[nH+]1)c1ccnn1C
     RDKit          3D

 53 55  0  0  1  0  0  0  0  0999 V2000
  125.6852  133.2899  160.9379 C   0  0  0  0  0  0  0  0  0  0  0  0
  125.4278  134.7824  161.1546 C   0  0  0  0  0  0  0  0  0  0  0  0
  126.7267  135.4745  161.4781 C   0  0  0  0  0  0  0  0  0  0  0  0
  127.4651  135.9657  160.5140 C   0  0  0  0  0  0  0  0  0  0  0  0
  128.7640  136.6578  160.8376 C   0  0  0  0  0  0  0  0  0  0  0  0
  129.7436  136.4725  159.6770 C   0  0  0  0  0  0  0  0  0  0  0  0
  130.0011  134.9801  159.4601 C   0  0  1  0  0  0  0  0  0  0  0  0
  129.0682  134.4292  159.5793 H   0  0  0  0  0  0  0  0  0  0  0  0
  130.5251  134.7663  158.1088 N   0  0  0  0  0  0  0  0  0  0  0  0
  130.2679  133.5780  157.4466 C   0  0  0  0  0  0  0  0  0  0  0  0
  129.5404  132.5384  157.9378 N   0  0  0  0  0  0  0  0  0  0  0  0
  129.1126  132.4966  158.8074 H   0  0  0  0  0  0  0  0  0  0  0  0
  129.5241  131.5580  156.9741 C   0  0  0  0  0  0  0  0  0  0  0  0
  130.2415  132.0274  155.9236 C   0  0  0  0  0  0  0  0  0  0  0  0
  130.4969  131.3098  154.6505 C   0  0  0  0  0  0  0  0  0  0  0  0
  130.0630  131.8545  153.4429 C   0  0  0  0  0  0  0  0  0  0  0  0
  130.3061  131.1882  152.2604 C   0  0  0  0  0  0  0  0  0  0  0  0
  130.9729  129.9694  152.2727 C   0  0  0  0  0  0  0  0  0  0  0  0
  131.2129  129.2936  151.0739 N   0  0  0  0  0  0  0  0  0  0  0  0
  131.4019  129.4214  153.4763 C   0  0  0  0  0  0  0  0  0  0  0  0
  131.1661  130.0870  154.6607 C   0  0  0  0  0  0  0  0  0  0  0  0
  130.6805  133.2712  156.2407 N   0  0  0  0  0  0  0  0  0  0  0  0
  131.2160  133.8417  155.6676 H   0  0  0  0  0  0  0  0  0  0  0  0
  131.0057  134.4914  160.4716 C   0  0  0  0  0  0  0  0  0  0  0  0
  132.2722  134.9437  160.6208 C   0  0  0  0  0  0  0  0  0  0  0  0
  132.8640  134.2290  161.6676 C   0  0  0  0  0  0  0  0  0  0  0  0
  131.9842  133.3781  162.1300 N   0  0  0  0  0  0  0  0  0  0  0  0
  130.8015  133.5282  161.3944 N   0  0  0  0  0  0  0  0  0  0  0  0
  129.5627  132.7710  161.5903 C   0  0  0  0  0  0  0  0  0  0  0  0
  126.1104  132.8592  161.8444 H   0  0  0  0  0  0  0  0  0  0  0  0
  124.7457  132.7893  160.7038 H   0  0  0  0  0  0  0  0  0  0  0  0
  126.3830  133.1578  160.1110 H   0  0  0  0  0  0  0  0  0  0  0  0
  124.7299  134.9143  161.9814 H   0  0  0  0  0  0  0  0  0  0  0  0
  125.0025  135.2132  160.2481 H   0  0  0  0  0  0  0  0  0  0  0  0
  127.0489  135.5655  162.5050 H   0  0  0  0  0  0  0  0  0  0  0  0
  127.1429  135.8747  159.4873 H   0  0  0  0  0  0  0  0  0  0  0  0
  128.5806  137.7211  160.9920 H   0  0  0  0  0  0  0  0  0  0  0  0
  129.1892  136.2270  161.7441 H   0  0  0  0  0  0  0  0  0  0  0  0
  129.3184  136.9034  158.7704 H   0  0  0  0  0  0  0  0  0  0  0  0
  130.6831  136.9732  159.9109 H   0  0  0  0  0  0  0  0  0  0  0  0
  131.0524  135.4572  157.6781 H   0  0  0  0  0  0  0  0  0  0  0  0
  129.0338  130.5981  157.0409 H   0  0  0  0  0  0  0  0  0  0  0  0
  129.5404  132.7995  153.4332 H   0  0  0  0  0  0  0  0  0  0  0  0
  129.9739  131.6119  151.3242 H   0  0  0  0  0  0  0  0  0  0  0  0
  131.6788  128.4420  151.0821 H   0  0  0  0  0  0  0  0  0  0  0  0
  130.9140  129.6745  150.2340 H   0  0  0  0  0  0  0  0  0  0  0  0
  131.9201  128.4738  153.4837 H   0  0  0  0  0  0  0  0  0  0  0  0
  131.5000  129.6613  155.5954 H   0  0  0  0  0  0  0  0  0  0  0  0
  132.7431  135.7195  160.0352 H   0  0  0  0  0  0  0  0  0  0  0  0
  133.8730  134.3571  162.0308 H   0  0  0  0  0  0  0  0  0  0  0  0
  129.5834  131.8739  160.9712 H   0  0  0  0  0  0  0  0  0  0  0  0
  129.4725  132.4868  162.6387 H   0  0  0  0  0  0  0  0  0  0  0  0
  128.7106  133.3886  161.3067 H   0  0  0  0  0  0  0  0  0  0  0  0
  1  2  1  0
  1 30  1  0
  1 31  1  0
  1 32  1  0
  2  3  1  0
  2 33  1  0
  2 34  1  0
  3  4  2  0
  3 35  1  0
  4  5  1  0
  4 36  1  0
  5  6  1  0
  5 37  1  0
  5 38  1  0
  6  7  1  0
  6 39  1  0
  6 40  1  0
  7  8  1  6
  7  9  1  0
  7 24  1  0
  9 41  1  0
 10  9  1  0
 10 22  2  0
 10 11  1  0
 11 12  1  0
 11 13  1  0
 13 14  2  0
 13 42  1  0
 14 15  1  0
 14 22  1  0
 15 21  1  0
 15 16  2  0
 16 17  1  0
 16 43  1  0
 17 18  2  0
 17 44  1  0
 18 19  1  0
 18 20  1  0
 19 45  1  0
 19 46  1  0
 20 21  2  0
 20 47  1  0
 21 48  1  0
 22 23  1  0
 24 28  1  0
 24 25  2  0
 25 26  1  0
 25 49  1  0
 26 27  2  0
 26 50  1  0
 27 28  1  0
 28 29  1  0
 29 51  1  0
 29 52  1  0
 29 53  1  0
M  CHG  1  22   1
M  END
>  <DOCK_score>  (1) 
-58.958656

>  <SMILES>  (1) 
CCC=CCC[C@@H](Nc1[nH]cc(-c2ccc(N)cc2)[nH+]1)c1ccnn1C

$$$$
