c1ccc([C@H](c2ccccn2)[NH+]2CCN(c3cccc4cc[nH]c34)CC2)cc1
     RDKit          3D

 53 57  0  0  1  0  0  0  0  0999 V2000
  131.4978  130.9069  157.2688 C   0  0  0  0  0  0  0  0  0  0  0  0
  130.7469  131.9063  156.6789 C   0  0  0  0  0  0  0  0  0  0  0  0
  130.2259  132.9272  157.4519 C   0  0  0  0  0  0  0  0  0  0  0  0
  130.4551  132.9480  158.8150 C   0  0  0  0  0  0  0  0  0  0  0  0
  129.8872  134.0608  159.6576 C   0  0  2  0  0  0  0  0  0  0  0  0
  129.6920  133.6910  160.6643 H   0  0  0  0  0  0  0  0  0  0  0  0
  128.6006  134.5494  159.0435 C   0  0  0  0  0  0  0  0  0  0  0  0
  127.4028  133.9667  159.4130 C   0  0  0  0  0  0  0  0  0  0  0  0
  126.2249  134.4238  158.8427 C   0  0  0  0  0  0  0  0  0  0  0  0
  126.2962  135.4546  157.9178 C   0  0  0  0  0  0  0  0  0  0  0  0
  127.5300  135.9881  157.5977 C   0  0  0  0  0  0  0  0  0  0  0  0
  128.6299  135.5315  158.1642 N   0  0  0  0  0  0  0  0  0  0  0  0
  130.8509  135.1677  159.7209 N   0  0  0  0  0  0  0  0  0  0  0  0
  131.0315  135.5100  158.7891 H   0  0  0  0  0  0  0  0  0  0  0  0
  132.1049  134.6911  160.3189 C   0  0  0  0  0  0  0  0  0  0  0  0
  133.1157  135.8393  160.3678 C   0  0  0  0  0  0  0  0  0  0  0  0
  132.5611  136.9426  161.1647 N   0  0  0  0  0  0  0  0  0  0  0  0
  133.4799  137.9907  161.2773 C   0  0  0  0  0  0  0  0  0  0  0  0
  133.9283  138.3918  162.5238 C   0  0  0  0  0  0  0  0  0  0  0  0
  134.8453  139.4260  162.6447 C   0  0  0  0  0  0  0  0  0  0  0  0
  135.3116  140.0751  161.5364 C   0  0  0  0  0  0  0  0  0  0  0  0
  134.8686  139.6924  160.2671 C   0  0  0  0  0  0  0  0  0  0  0  0
  135.1539  140.1571  158.9075 C   0  0  0  0  0  0  0  0  0  0  0  0
  134.4247  139.3999  158.0723 C   0  0  0  0  0  0  0  0  0  0  0  0
  133.6960  138.4888  158.7859 N   0  0  0  0  0  0  0  0  0  0  0  0
  133.0939  137.8326  158.4015 H   0  0  0  0  0  0  0  0  0  0  0  0
  133.9457  138.6418  160.1328 C   0  0  0  0  0  0  0  0  0  0  0  0
  131.2921  137.4137  160.5921 C   0  0  0  0  0  0  0  0  0  0  0  0
  130.2966  136.2528  160.5413 C   0  0  0  0  0  0  0  0  0  0  0  0
  131.2102  131.9512  159.4042 C   0  0  0  0  0  0  0  0  0  0  0  0
  131.7279  130.9283  158.6318 C   0  0  0  0  0  0  0  0  0  0  0  0
  131.9051  130.1095  156.6649 H   0  0  0  0  0  0  0  0  0  0  0  0
  130.5674  131.8898  155.6141 H   0  0  0  0  0  0  0  0  0  0  0  0
  129.6395  133.7081  156.9910 H   0  0  0  0  0  0  0  0  0  0  0  0
  127.3848  133.1656  160.1373 H   0  0  0  0  0  0  0  0  0  0  0  0
  125.2744  133.9877  159.1124 H   0  0  0  0  0  0  0  0  0  0  0  0
  125.3985  135.8359  157.4537 H   0  0  0  0  0  0  0  0  0  0  0  0
  127.5938  136.7911  156.8784 H   0  0  0  0  0  0  0  0  0  0  0  0
  132.5085  133.8774  159.7164 H   0  0  0  0  0  0  0  0  0  0  0  0
  131.9122  134.3335  161.3304 H   0  0  0  0  0  0  0  0  0  0  0  0
  134.0412  135.4896  160.8251 H   0  0  0  0  0  0  0  0  0  0  0  0
  133.3188  136.1882  159.3553 H   0  0  0  0  0  0  0  0  0  0  0  0
  133.5651  137.8921  163.4096 H   0  0  0  0  0  0  0  0  0  0  0  0
  135.1897  139.7242  163.6240 H   0  0  0  0  0  0  0  0  0  0  0  0
  136.0213  140.8823  161.6410 H   0  0  0  0  0  0  0  0  0  0  0  0
  135.8235  140.9575  158.6296 H   0  0  0  0  0  0  0  0  0  0  0  0
  134.4145  139.4964  156.9966 H   0  0  0  0  0  0  0  0  0  0  0  0
  131.4653  137.7887  159.5833 H   0  0  0  0  0  0  0  0  0  0  0  0
  130.8873  138.2132  161.2127 H   0  0  0  0  0  0  0  0  0  0  0  0
  129.3593  136.5967  160.1037 H   0  0  0  0  0  0  0  0  0  0  0  0
  130.1132  135.8871  161.5516 H   0  0  0  0  0  0  0  0  0  0  0  0
  131.3930  131.9698  160.4684 H   0  0  0  0  0  0  0  0  0  0  0  0
  132.3149  130.1476  159.0927 H   0  0  0  0  0  0  0  0  0  0  0  0
  1 31  2  0
  1  2  1  0
  1 32  1  0
  2  3  2  0
  2 33  1  0
  3  4  1  0
  3 34  1  0
  4  5  1  0
  4 30  2  0
  5  6  1  1
  5  7  1  0
  5 13  1  0
  7 12  1  0
  7  8  2  0
  8  9  1  0
  8 35  1  0
  9 10  2  0
  9 36  1  0
 10 11  1  0
 10 37  1  0
 11 12  2  0
 11 38  1  0
 13 14  1  0
 13 29  1  0
 13 15  1  0
 15 16  1  0
 15 39  1  0
 15 40  1  0
 16 17  1  0
 16 41  1  0
 16 42  1  0
 17 18  1  0
 17 28  1  0
 18 27  1  0
 18 19  2  0
 19 20  1  0
 19 43  1  0
 20 21  2  0
 20 44  1  0
 21 22  1  0
 21 45  1  0
 22 27  2  0
 22 23  1  0
 23 24  2  0
 23 46  1  0
 24 25  1  0
 24 47  1  0
 25 26  1  0
 25 27  1  0
 28 29  1  0
 28 48  1  0
 28 49  1  0
 29 50  1  0
 29 51  1  0
 30 31  1  0
 30 52  1  0
 31 53  1  0
M  CHG  1  13   1
M  END
>  <DOCK_score>  (1) 
-59.157932

>  <SMILES>  (1) 
c1ccc([C@H](c2ccccn2)[NH+]2CCN(c3cccc4cc[nH]c34)CC2)cc1

$$$$
