CCc1c(Br)cccc1N1CC[NH+](C(c2ccccc2)c2ccccc2)CC1
     RDKit          3D

 56 59  0  0  0  0  0  0  0  0999 V2000
  132.5365  139.6343  163.6667 C   0  0  0  0  0  0  0  0  0  0  0  0
  133.7663  138.8324  163.2361 C   0  0  0  0  0  0  0  0  0  0  0  0
  134.2380  139.3201  161.8904 C   0  0  0  0  0  0  0  0  0  0  0  0
  135.1637  140.3433  161.8108 C   0  0  0  0  0  0  0  0  0  0  0  0
  135.8392  141.1312  163.3917 Br  0  0  0  0  0  0  0  0  0  0  0  0
  135.5970  140.7912  160.5755 C   0  0  0  0  0  0  0  0  0  0  0  0
  135.1057  140.2172  159.4173 C   0  0  0  0  0  0  0  0  0  0  0  0
  134.1806  139.1946  159.4901 C   0  0  0  0  0  0  0  0  0  0  0  0
  133.7427  138.7423  160.7288 C   0  0  0  0  0  0  0  0  0  0  0  0
  132.8066  137.7085  160.8053 N   0  0  0  0  0  0  0  0  0  0  0  0
  133.3516  136.4622  160.2484 C   0  0  0  0  0  0  0  0  0  0  0  0
  132.3200  135.3430  160.4053 C   0  0  0  0  0  0  0  0  0  0  0  0
  131.0842  135.7141  159.7032 N   0  0  0  0  0  0  0  0  0  0  0  0
  131.2851  135.8650  158.7260 H   0  0  0  0  0  0  0  0  0  0  0  0
  130.1004  134.6315  159.8388 C   0  0  0  0  0  0  0  0  0  0  0  0
  128.8324  135.0119  159.1187 C   0  0  0  0  0  0  0  0  0  0  0  0
  127.6148  134.5314  159.5627 C   0  0  0  0  0  0  0  0  0  0  0  0
  126.4511  134.8841  158.9051 C   0  0  0  0  0  0  0  0  0  0  0  0
  126.5063  135.7091  157.7972 C   0  0  0  0  0  0  0  0  0  0  0  0
  127.7245  136.1855  157.3501 C   0  0  0  0  0  0  0  0  0  0  0  0
  128.8877  135.8368  158.0109 C   0  0  0  0  0  0  0  0  0  0  0  0
  130.6591  133.3671  159.2386 C   0  0  0  0  0  0  0  0  0  0  0  0
  130.4394  133.0796  157.9046 C   0  0  0  0  0  0  0  0  0  0  0  0
  130.9559  131.9220  157.3528 C   0  0  0  0  0  0  0  0  0  0  0  0
  131.6830  131.0468  158.1378 C   0  0  0  0  0  0  0  0  0  0  0  0
  131.8982  131.3319  159.4733 C   0  0  0  0  0  0  0  0  0  0  0  0
  131.3862  132.4920  160.0237 C   0  0  0  0  0  0  0  0  0  0  0  0
  130.5388  136.9467  160.2867 C   0  0  0  0  0  0  0  0  0  0  0  0
  131.5556  138.0793  160.1290 C   0  0  0  0  0  0  0  0  0  0  0  0
  132.1952  139.2816  164.6399 H   0  0  0  0  0  0  0  0  0  0  0  0
  132.7966  140.6906  163.7337 H   0  0  0  0  0  0  0  0  0  0  0  0
  131.7412  139.5020  162.9330 H   0  0  0  0  0  0  0  0  0  0  0  0
  133.5059  137.7760  163.1689 H   0  0  0  0  0  0  0  0  0  0  0  0
  134.5614  138.9648  163.9697 H   0  0  0  0  0  0  0  0  0  0  0  0
  136.3208  141.5906  160.5157 H   0  0  0  0  0  0  0  0  0  0  0  0
  135.4461  140.5689  158.4546 H   0  0  0  0  0  0  0  0  0  0  0  0
  133.7944  138.7498  158.5850 H   0  0  0  0  0  0  0  0  0  0  0  0
  133.5765  136.6041  159.1914 H   0  0  0  0  0  0  0  0  0  0  0  0
  134.2635  136.1938  160.7818 H   0  0  0  0  0  0  0  0  0  0  0  0
  132.1055  135.1921  161.4633 H   0  0  0  0  0  0  0  0  0  0  0  0
  132.7166  134.4211  159.9800 H   0  0  0  0  0  0  0  0  0  0  0  0
  129.8836  134.4677  160.8943 H   0  0  0  0  0  0  0  0  0  0  0  0
  127.5721  133.8833  160.4256 H   0  0  0  0  0  0  0  0  0  0  0  0
  125.4995  134.5117  159.2541 H   0  0  0  0  0  0  0  0  0  0  0  0
  125.5976  135.9812  157.2808 H   0  0  0  0  0  0  0  0  0  0  0  0
  127.7677  136.8296  156.4844 H   0  0  0  0  0  0  0  0  0  0  0  0
  129.8395  136.2087  157.6613 H   0  0  0  0  0  0  0  0  0  0  0  0
  129.8675  133.7610  157.2922 H   0  0  0  0  0  0  0  0  0  0  0  0
  130.7874  131.6992  156.3096 H   0  0  0  0  0  0  0  0  0  0  0  0
  132.0827  130.1404  157.7079 H   0  0  0  0  0  0  0  0  0  0  0  0
  132.4661  130.6480  160.0867 H   0  0  0  0  0  0  0  0  0  0  0  0
  131.5540  132.7144  161.0671 H   0  0  0  0  0  0  0  0  0  0  0  0
  130.3336  136.7877  161.3454 H   0  0  0  0  0  0  0  0  0  0  0  0
  129.6149  137.2139  159.7737 H   0  0  0  0  0  0  0  0  0  0  0  0
  131.1573  138.9906  160.5752 H   0  0  0  0  0  0  0  0  0  0  0  0
  131.7509  138.2479  159.0700 H   0  0  0  0  0  0  0  0  0  0  0  0
  1  2  1  0
  1 30  1  0
  1 31  1  0
  1 32  1  0
  2  3  1  0
  2 33  1  0
  2 34  1  0
  3  9  2  0
  3  4  1  0
  4  5  1  0
  4  6  2  0
  6  7  1  0
  6 35  1  0
  7  8  2  0
  7 36  1  0
  8  9  1  0
  8 37  1  0
  9 10  1  0
 10 29  1  0
 10 11  1  0
 11 12  1  0
 11 38  1  0
 11 39  1  0
 12 13  1  0
 12 40  1  0
 12 41  1  0
 13 14  1  0
 13 15  1  0
 13 28  1  0
 15 16  1  0
 15 22  1  0
 15 42  1  0
 16 21  1  0
 16 17  2  0
 17 18  1  0
 17 43  1  0
 18 19  2  0
 18 44  1  0
 19 20  1  0
 19 45  1  0
 20 21  2  0
 20 46  1  0
 21 47  1  0
 22 27  1  0
 22 23  2  0
 23 24  1  0
 23 48  1  0
 24 25  2  0
 24 49  1  0
 25 26  1  0
 25 50  1  0
 26 27  2  0
 26 51  1  0
 27 52  1  0
 28 29  1  0
 28 53  1  0
 28 54  1  0
 29 55  1  0
 29 56  1  0
M  CHG  1  13   1
M  END
>  <DOCK_score>  (1) 
-56.003441

>  <SMILES>  (1) 
CCc1c(Br)cccc1N1CC[NH+](C(c2ccccc2)c2ccccc2)CC1

$$$$
