Cc1ccc([C@@H](COC=CC(C)C)Nc2[nH]cc(-c3ccc(N)cc3)[nH+]2)cc1
     RDKit          3D

 57 59  0  0  1  0  0  0  0  0999 V2000
  133.3764  139.0652  162.9990 C   0  0  0  0  0  0  0  0  0  0  0  0
  132.4773  138.0967  162.2748 C   0  0  0  0  0  0  0  0  0  0  0  0
  132.2894  136.8217  162.7749 C   0  0  0  0  0  0  0  0  0  0  0  0
  131.4651  135.9331  162.1103 C   0  0  0  0  0  0  0  0  0  0  0  0
  130.8284  136.3194  160.9458 C   0  0  0  0  0  0  0  0  0  0  0  0
  129.9301  135.3505  160.2210 C   0  0  1  0  0  0  0  0  0  0  0  0
  129.9062  134.4039  160.7607 H   0  0  0  0  0  0  0  0  0  0  0  0
  128.5155  135.9282  160.1418 C   0  0  0  0  0  0  0  0  0  0  0  0
  127.6636  135.0097  159.4545 O   0  0  0  0  0  0  0  0  0  0  0  0
  127.1867  133.9594  160.1689 C   0  0  0  0  0  0  0  0  0  0  0  0
  126.3962  133.0767  159.5941 C   0  0  0  0  0  0  0  0  0  0  0  0
  125.8664  131.9102  160.3875 C   0  0  0  0  0  0  0  0  0  0  0  0
  124.3372  131.9567  160.4033 C   0  0  0  0  0  0  0  0  0  0  0  0
  126.3302  130.6023  159.7431 C   0  0  0  0  0  0  0  0  0  0  0  0
  130.4432  135.1280  158.8669 N   0  0  0  0  0  0  0  0  0  0  0  0
  130.2319  133.9132  158.2376 C   0  0  0  0  0  0  0  0  0  0  0  0
  129.5668  132.8510  158.7678 N   0  0  0  0  0  0  0  0  0  0  0  0
  129.1584  132.8092  159.6467 H   0  0  0  0  0  0  0  0  0  0  0  0
  129.5804  131.8480  157.8275 C   0  0  0  0  0  0  0  0  0  0  0  0
  130.2528  132.3268  156.7518 C   0  0  0  0  0  0  0  0  0  0  0  0
  130.5182  131.5923  155.4904 C   0  0  0  0  0  0  0  0  0  0  0  0
  130.0341  132.0860  154.2800 C   0  0  0  0  0  0  0  0  0  0  0  0
  130.2870  131.4046  153.1082 C   0  0  0  0  0  0  0  0  0  0  0  0
  131.0137  130.2203  153.1347 C   0  0  0  0  0  0  0  0  0  0  0  0
  131.2632  129.5286  151.9469 N   0  0  0  0  0  0  0  0  0  0  0  0
  131.4929  129.7233  154.3411 C   0  0  0  0  0  0  0  0  0  0  0  0
  131.2473  130.4043  155.5146 C   0  0  0  0  0  0  0  0  0  0  0  0
  130.6402  133.5961  157.0330 N   0  0  0  0  0  0  0  0  0  0  0  0
  131.1395  134.1766  156.4376 H   0  0  0  0  0  0  0  0  0  0  0  0
  131.0205  137.5926  160.4428 C   0  0  0  0  0  0  0  0  0  0  0  0
  131.8406  138.4830  161.1102 C   0  0  0  0  0  0  0  0  0  0  0  0
  134.3951  138.9651  162.6242 H   0  0  0  0  0  0  0  0  0  0  0  0
  133.0253  140.0831  162.8296 H   0  0  0  0  0  0  0  0  0  0  0  0
  133.3592  138.8479  164.0670 H   0  0  0  0  0  0  0  0  0  0  0  0
  132.7871  136.5197  163.6846 H   0  0  0  0  0  0  0  0  0  0  0  0
  131.3186  134.9370  162.5008 H   0  0  0  0  0  0  0  0  0  0  0  0
  128.1338  136.0937  161.1494 H   0  0  0  0  0  0  0  0  0  0  0  0
  128.5393  136.8751  159.6023 H   0  0  0  0  0  0  0  0  0  0  0  0
  127.4551  133.8474  161.2090 H   0  0  0  0  0  0  0  0  0  0  0  0
  126.1277  133.1887  158.5539 H   0  0  0  0  0  0  0  0  0  0  0  0
  126.2421  131.9651  161.4091 H   0  0  0  0  0  0  0  0  0  0  0  0
  123.9613  131.9018  159.3817 H   0  0  0  0  0  0  0  0  0  0  0  0
  123.9539  131.1130  160.9772 H   0  0  0  0  0  0  0  0  0  0  0  0
  124.0067  132.8885  160.8625 H   0  0  0  0  0  0  0  0  0  0  0  0
  125.9543  130.5475  158.7214 H   0  0  0  0  0  0  0  0  0  0  0  0
  127.4196  130.5692  159.7318 H   0  0  0  0  0  0  0  0  0  0  0  0
  125.9469  129.7586  160.3170 H   0  0  0  0  0  0  0  0  0  0  0  0
  130.9308  135.8319  158.4113 H   0  0  0  0  0  0  0  0  0  0  0  0
  129.1434  130.8656  157.9283 H   0  0  0  0  0  0  0  0  0  0  0  0
  129.4653  133.0038  154.2596 H   0  0  0  0  0  0  0  0  0  0  0  0
  129.9156  131.7889  152.1697 H   0  0  0  0  0  0  0  0  0  0  0  0
  131.7708  128.7019  151.9647 H   0  0  0  0  0  0  0  0  0  0  0  0
  130.9293  129.8745  151.1047 H   0  0  0  0  0  0  0  0  0  0  0  0
  132.0576  128.8030  154.3593 H   0  0  0  0  0  0  0  0  0  0  0  0
  131.6198  130.0178  156.4518 H   0  0  0  0  0  0  0  0  0  0  0  0
  130.5266  137.8931  159.5304 H   0  0  0  0  0  0  0  0  0  0  0  0
  131.9876  139.4790  160.7192 H   0  0  0  0  0  0  0  0  0  0  0  0
  1  2  1  0
  1 32  1  0
  1 33  1  0
  1 34  1  0
  2 31  2  0
  2  3  1  0
  3  4  2  0
  3 35  1  0
  4  5  1  0
  4 36  1  0
  5  6  1  0
  5 30  2  0
  6  7  1  1
  6  8  1  0
  6 15  1  0
  8  9  1  0
  8 37  1  0
  8 38  1  0
  9 10  1  0
 10 11  2  0
 10 39  1  0
 11 12  1  0
 11 40  1  0
 12 13  1  0
 12 14  1  0
 12 41  1  0
 13 42  1  0
 13 43  1  0
 13 44  1  0
 14 45  1  0
 14 46  1  0
 14 47  1  0
 15 48  1  0
 16 15  1  0
 16 28  2  0
 16 17  1  0
 17 18  1  0
 17 19  1  0
 19 20  2  0
 19 49  1  0
 20 21  1  0
 20 28  1  0
 21 27  1  0
 21 22  2  0
 22 23  1  0
 22 50  1  0
 23 24  2  0
 23 51  1  0
 24 25  1  0
 24 26  1  0
 25 52  1  0
 25 53  1  0
 26 27  2  0
 26 54  1  0
 27 55  1  0
 28 29  1  0
 30 31  1  0
 30 56  1  0
 31 57  1  0
M  CHG  1  28   1
M  END
>  <DOCK_score>  (1) 
-59.692886

>  <SMILES>  (1) 
Cc1ccc([C@@H](COC=CC(C)C)Nc2[nH]cc(-c3ccc(N)cc3)[nH+]2)cc1

$$$$
