Cc1cc(C[NH2+]Cc2c[nH]nc2-c2ccc(Nc3nc(-c4ccc(N)cc4)c[nH]3)o2)c(C)[nH]1
     RDKit          3D

 60 64  0  0  0  0  0  0  0  0999 V2000
  134.9313  137.2660  163.3392 C   0  0  0  0  0  0  0  0  0  0  0  0
  134.0715  137.7156  162.1862 C   0  0  0  0  0  0  0  0  0  0  0  0
  132.7460  137.5023  162.0582 C   0  0  0  0  0  0  0  0  0  0  0  0
  132.3396  138.0901  160.8440 C   0  0  0  0  0  0  0  0  0  0  0  0
  130.9401  138.1060  160.2853 C   0  0  0  0  0  0  0  0  0  0  0  0
  130.7353  136.9197  159.4433 N   0  0  0  0  0  0  0  0  0  0  0  0
  129.7983  136.9306  159.0693 H   0  0  0  0  0  0  0  0  0  0  0  0
  131.4005  136.9269  158.6847 H   0  0  0  0  0  0  0  0  0  0  0  0
  130.9263  135.7076  160.2507 C   0  0  0  0  0  0  0  0  0  0  0  0
  130.7162  134.4906  159.3871 C   0  0  0  0  0  0  0  0  0  0  0  0
  131.6654  133.8493  158.6722 C   0  0  0  0  0  0  0  0  0  0  0  0
  131.0807  132.8096  158.0385 N   0  0  0  0  0  0  0  0  0  0  0  0
  131.5266  132.1751  157.4558 H   0  0  0  0  0  0  0  0  0  0  0  0
  129.7181  132.8098  158.3632 N   0  0  0  0  0  0  0  0  0  0  0  0
  129.4917  133.8221  159.1770 C   0  0  0  0  0  0  0  0  0  0  0  0
  128.1873  134.1907  159.7649 C   0  0  0  0  0  0  0  0  0  0  0  0
  127.0109  133.5398  159.5641 C   0  0  0  0  0  0  0  0  0  0  0  0
  126.0325  134.2256  160.3099 C   0  0  0  0  0  0  0  0  0  0  0  0
  126.6577  135.2586  160.9279 C   0  0  0  0  0  0  0  0  0  0  0  0
  126.0536  136.1897  161.7662 N   0  0  0  0  0  0  0  0  0  0  0  0
  126.7814  136.7761  162.7885 C   0  0  0  0  0  0  0  0  0  0  0  0
  128.0404  136.5361  163.0648 N   0  0  0  0  0  0  0  0  0  0  0  0
  128.4145  137.2920  164.1266 C   0  0  0  0  0  0  0  0  0  0  0  0
  129.7607  137.3166  164.7495 C   0  0  0  0  0  0  0  0  0  0  0  0
  130.4897  138.5040  164.7895 C   0  0  0  0  0  0  0  0  0  0  0  0
  131.7390  138.5256  165.3730 C   0  0  0  0  0  0  0  0  0  0  0  0
  132.2756  137.3629  165.9119 C   0  0  0  0  0  0  0  0  0  0  0  0
  133.5433  137.3862  166.4981 N   0  0  0  0  0  0  0  0  0  0  0  0
  131.5524  136.1761  165.8688 C   0  0  0  0  0  0  0  0  0  0  0  0
  130.3008  136.1510  165.2906 C   0  0  0  0  0  0  0  0  0  0  0  0
  127.3390  138.0177  164.5216 C   0  0  0  0  0  0  0  0  0  0  0  0
  126.3058  137.6920  163.6760 N   0  0  0  0  0  0  0  0  0  0  0  0
  125.4044  138.0488  163.7060 H   0  0  0  0  0  0  0  0  0  0  0  0
  127.9604  135.2278  160.5979 O   0  0  0  0  0  0  0  0  0  0  0  0
  133.4336  138.6329  160.2722 C   0  0  0  0  0  0  0  0  0  0  0  0
  133.4709  139.3660  158.9561 C   0  0  0  0  0  0  0  0  0  0  0  0
  134.4990  138.4092  161.0930 N   0  0  0  0  0  0  0  0  0  0  0  0
  135.4105  138.6962  160.9268 H   0  0  0  0  0  0  0  0  0  0  0  0
  135.0211  138.0760  164.0632 H   0  0  0  0  0  0  0  0  0  0  0  0
  134.4738  136.4001  163.8176 H   0  0  0  0  0  0  0  0  0  0  0  0
  135.9212  136.9966  162.9707 H   0  0  0  0  0  0  0  0  0  0  0  0
  132.1119  136.9806  162.7598 H   0  0  0  0  0  0  0  0  0  0  0  0
  130.2215  138.0983  161.1048 H   0  0  0  0  0  0  0  0  0  0  0  0
  130.7983  139.0056  159.6862 H   0  0  0  0  0  0  0  0  0  0  0  0
  131.9385  135.6959  160.6549 H   0  0  0  0  0  0  0  0  0  0  0  0
  130.2077  135.6999  161.0704 H   0  0  0  0  0  0  0  0  0  0  0  0
  132.7097  134.1192  158.6184 H   0  0  0  0  0  0  0  0  0  0  0  0
  126.8563  132.6646  158.9505 H   0  0  0  0  0  0  0  0  0  0  0  0
  124.9839  133.9761  160.3774 H   0  0  0  0  0  0  0  0  0  0  0  0
  125.1226  136.4285  161.6348 H   0  0  0  0  0  0  0  0  0  0  0  0
  130.0750  139.4073  164.3670 H   0  0  0  0  0  0  0  0  0  0  0  0
  132.3026  139.4462  165.4076 H   0  0  0  0  0  0  0  0  0  0  0  0
  133.9184  136.5738  166.8747 H   0  0  0  0  0  0  0  0  0  0  0  0
  134.0485  138.2127  166.5286 H   0  0  0  0  0  0  0  0  0  0  0  0
  131.9713  135.2732  166.2881 H   0  0  0  0  0  0  0  0  0  0  0  0
  129.7393  135.2290  165.2574 H   0  0  0  0  0  0  0  0  0  0  0  0
  127.3015  138.7171  165.3437 H   0  0  0  0  0  0  0  0  0  0  0  0
  133.6693  138.6582  158.1514 H   0  0  0  0  0  0  0  0  0  0  0  0
  134.2597  140.1180  158.9813 H   0  0  0  0  0  0  0  0  0  0  0  0
  132.5108  139.8524  158.7838 H   0  0  0  0  0  0  0  0  0  0  0  0
  1  2  1  0
  1 39  1  0
  1 40  1  0
  1 41  1  0
  2 37  1  0
  2  3  2  0
  3  4  1  0
  3 42  1  0
  4  5  1  0
  4 35  2  0
  5  6  1  0
  5 43  1  0
  5 44  1  0
  6  7  1  0
  6  8  1  0
  6  9  1  0
  9 10  1  0
  9 45  1  0
  9 46  1  0
 10 15  1  0
 10 11  2  0
 11 12  1  0
 11 47  1  0
 12 13  1  0
 12 14  1  0
 14 15  2  0
 15 16  1  0
 16 34  1  0
 16 17  2  0
 17 18  1  0
 17 48  1  0
 18 19  2  0
 18 49  1  0
 19 20  1  0
 19 34  1  0
 20 21  1  0
 20 50  1  0
 21 32  1  0
 21 22  2  0
 22 23  1  0
 23 24  1  0
 23 31  2  0
 24 30  1  0
 24 25  2  0
 25 26  1  0
 25 51  1  0
 26 27  2  0
 26 52  1  0
 27 28  1  0
 27 29  1  0
 28 53  1  0
 28 54  1  0
 29 30  2  0
 29 55  1  0
 30 56  1  0
 31 32  1  0
 31 57  1  0
 32 33  1  0
 35 36  1  0
 35 37  1  0
 36 58  1  0
 36 59  1  0
 36 60  1  0
 37 38  1  0
M  CHG  1   6   1
M  END
>  <DOCK_score>  (1) 
-45.755833

>  <SMILES>  (1) 
Cc1cc(C[NH2+]Cc2c[nH]nc2-c2ccc(Nc3nc(-c4ccc(N)cc4)c[nH]3)o2)c(C)[nH]1

$$$$
