CCc1ccc(NC[C@H](Nc2[nH]cc(-c3ccc(CC)cc3)[nH+]2)C(F)(F)F)cc1
     RDKit          3D

 55 57  0  0  1  0  0  0  0  0999 V2000
  137.1614  139.3448  161.2500 C   0  0  0  0  0  0  0  0  0  0  0  0
  136.0275  140.3475  161.4732 C   0  0  0  0  0  0  0  0  0  0  0  0
  134.7053  139.6815  161.1914 C   0  0  0  0  0  0  0  0  0  0  0  0
  134.0263  139.0379  162.2095 C   0  0  0  0  0  0  0  0  0  0  0  0
  132.8147  138.4261  161.9546 C   0  0  0  0  0  0  0  0  0  0  0  0
  132.2782  138.4580  160.6736 C   0  0  0  0  0  0  0  0  0  0  0  0
  131.0532  137.8401  160.4123 N   0  0  0  0  0  0  0  0  0  0  0  0
  130.5441  136.8095  161.3207 C   0  0  0  0  0  0  0  0  0  0  0  0
  129.6906  135.8127  160.5342 C   0  0  2  0  0  0  0  0  0  0  0  0
  129.6079  134.8824  161.0961 H   0  0  0  0  0  0  0  0  0  0  0  0
  130.3203  135.5463  159.2385 N   0  0  0  0  0  0  0  0  0  0  0  0
  130.1525  134.3155  158.6273 C   0  0  0  0  0  0  0  0  0  0  0  0
  129.4344  133.2733  159.1277 N   0  0  0  0  0  0  0  0  0  0  0  0
  128.9520  133.2594  159.9691 H   0  0  0  0  0  0  0  0  0  0  0  0
  129.5183  132.2448  158.2210 C   0  0  0  0  0  0  0  0  0  0  0  0
  130.2846  132.6876  157.1935 C   0  0  0  0  0  0  0  0  0  0  0  0
  130.6497  131.9154  155.9807 C   0  0  0  0  0  0  0  0  0  0  0  0
  130.2814  132.3792  154.7190 C   0  0  0  0  0  0  0  0  0  0  0  0
  130.6242  131.6568  153.5942 C   0  0  0  0  0  0  0  0  0  0  0  0
  131.3320  130.4742  153.7175 C   0  0  0  0  0  0  0  0  0  0  0  0
  131.7035  129.6897  152.4856 C   0  0  0  0  0  0  0  0  0  0  0  0
  130.5864  128.6974  152.1568 C   0  0  0  0  0  0  0  0  0  0  0  0
  131.6951  130.0066  154.9672 C   0  0  0  0  0  0  0  0  0  0  0  0
  131.3626  130.7236  156.0986 C   0  0  0  0  0  0  0  0  0  0  0  0
  130.6633  133.9600  157.4738 N   0  0  0  0  0  0  0  0  0  0  0  0
  131.2211  134.5181  156.9097 H   0  0  0  0  0  0  0  0  0  0  0  0
  128.2954  136.4001  160.3120 C   0  0  0  0  0  0  0  0  0  0  0  0
  128.4014  137.5941  159.5908 F   0  0  0  0  0  0  0  0  0  0  0  0
  127.5148  135.4886  159.5928 F   0  0  0  0  0  0  0  0  0  0  0  0
  127.6942  136.6544  161.5494 F   0  0  0  0  0  0  0  0  0  0  0  0
  132.9655  139.1010  159.6521 C   0  0  0  0  0  0  0  0  0  0  0  0
  134.1742  139.7152  159.9150 C   0  0  0  0  0  0  0  0  0  0  0  0
  138.1178  139.8264  161.4538 H   0  0  0  0  0  0  0  0  0  0  0  0
  137.0324  138.4952  161.9205 H   0  0  0  0  0  0  0  0  0  0  0  0
  137.1420  138.9985  160.2166 H   0  0  0  0  0  0  0  0  0  0  0  0
  136.1566  141.1972  160.8027 H   0  0  0  0  0  0  0  0  0  0  0  0
  136.0470  140.6939  162.5064 H   0  0  0  0  0  0  0  0  0  0  0  0
  134.4438  139.0137  163.2053 H   0  0  0  0  0  0  0  0  0  0  0  0
  132.2849  137.9232  162.7502 H   0  0  0  0  0  0  0  0  0  0  0  0
  130.5394  138.0931  159.6293 H   0  0  0  0  0  0  0  0  0  0  0  0
  129.9362  137.2764  162.0956 H   0  0  0  0  0  0  0  0  0  0  0  0
  131.3816  136.2860  161.7821 H   0  0  0  0  0  0  0  0  0  0  0  0
  130.8547  136.2324  158.8088 H   0  0  0  0  0  0  0  0  0  0  0  0
  129.0613  131.2704  158.3092 H   0  0  0  0  0  0  0  0  0  0  0  0
  129.7287  133.3019  154.6218 H   0  0  0  0  0  0  0  0  0  0  0  0
  130.3391  132.0151  152.6160 H   0  0  0  0  0  0  0  0  0  0  0  0
  132.6308  129.1473  152.6660 H   0  0  0  0  0  0  0  0  0  0  0  0
  131.8398  130.3736  151.6469 H   0  0  0  0  0  0  0  0  0  0  0  0
  129.6590  129.2404  151.9760 H   0  0  0  0  0  0  0  0  0  0  0  0
  130.8551  128.1301  151.2657 H   0  0  0  0  0  0  0  0  0  0  0  0
  130.4498  128.0141  152.9950 H   0  0  0  0  0  0  0  0  0  0  0  0
  132.2434  129.0807  155.0577 H   0  0  0  0  0  0  0  0  0  0  0  0
  131.6507  130.3598  157.0739 H   0  0  0  0  0  0  0  0  0  0  0  0
  132.5534  139.1239  158.6540 H   0  0  0  0  0  0  0  0  0  0  0  0
  134.7071  140.2188  159.1220 H   0  0  0  0  0  0  0  0  0  0  0  0
  1  2  1  0
  1 33  1  0
  1 34  1  0
  1 35  1  0
  2  3  1  0
  2 36  1  0
  2 37  1  0
  3 32  2  0
  3  4  1  0
  4  5  2  0
  4 38  1  0
  5  6  1  0
  5 39  1  0
  6  7  1  0
  6 31  2  0
  7  8  1  0
  7 40  1  0
  8  9  1  0
  8 41  1  0
  8 42  1  0
  9 10  1  1
  9 11  1  0
  9 27  1  0
 11 43  1  0
 12 11  1  0
 12 25  2  0
 12 13  1  0
 13 14  1  0
 13 15  1  0
 15 16  2  0
 15 44  1  0
 16 17  1  0
 16 25  1  0
 17 24  1  0
 17 18  2  0
 18 19  1  0
 18 45  1  0
 19 20  2  0
 19 46  1  0
 20 21  1  0
 20 23  1  0
 21 22  1  0
 21 47  1  0
 21 48  1  0
 22 49  1  0
 22 50  1  0
 22 51  1  0
 23 24  2  0
 23 52  1  0
 24 53  1  0
 25 26  1  0
 27 28  1  0
 27 29  1  0
 27 30  1  0
 31 32  1  0
 31 54  1  0
 32 55  1  0
M  CHG  1  25   1
M  END
>  <DOCK_score>  (1) 
-60.526108

>  <SMILES>  (1) 
CCc1ccc(NC[C@H](Nc2[nH]cc(-c3ccc(CC)cc3)[nH+]2)C(F)(F)F)cc1

$$$$
