C[C@@H](Nc1cc[nH+]c(NC(c2ccccc2)c2ccccc2)c1)c1cccc(O)c1
     RDKit          3D

 56 59  0  0  1  0  0  0  0  0999 V2000
  127.8510  134.9718  158.6287 C   0  0  0  0  0  0  0  0  0  0  0  0
  127.9985  133.8940  159.7046 C   0  0  1  0  0  0  0  0  0  0  0  0
  128.5664  133.0548  159.3028 H   0  0  0  0  0  0  0  0  0  0  0  0
  128.7036  134.4518  160.8612 N   0  0  0  0  0  0  0  0  0  0  0  0
  129.9919  134.9577  160.7133 C   0  0  0  0  0  0  0  0  0  0  0  0
  130.8589  134.4378  159.7493 C   0  0  0  0  0  0  0  0  0  0  0  0
  132.1264  134.9635  159.6309 C   0  0  0  0  0  0  0  0  0  0  0  0
  132.5291  135.9479  160.4139 N   0  0  0  0  0  0  0  0  0  0  0  0
  133.4273  136.2980  160.3075 H   0  0  0  0  0  0  0  0  0  0  0  0
  131.7395  136.4703  161.3413 C   0  0  0  0  0  0  0  0  0  0  0  0
  132.2094  137.5055  162.1417 N   0  0  0  0  0  0  0  0  0  0  0  0
  133.5711  138.0133  161.9577 C   0  0  0  0  0  0  0  0  0  0  0  0
  133.7255  138.5395  160.5540 C   0  0  0  0  0  0  0  0  0  0  0  0
  134.9593  138.4977  159.9320 C   0  0  0  0  0  0  0  0  0  0  0  0
  135.0998  138.9760  158.6426 C   0  0  0  0  0  0  0  0  0  0  0  0
  134.0089  139.5056  157.9791 C   0  0  0  0  0  0  0  0  0  0  0  0
  132.7762  139.5522  158.6030 C   0  0  0  0  0  0  0  0  0  0  0  0
  132.6345  139.0691  159.8905 C   0  0  0  0  0  0  0  0  0  0  0  0
  133.8301  139.1246  162.9421 C   0  0  0  0  0  0  0  0  0  0  0  0
  135.1098  139.3423  163.4174 C   0  0  0  0  0  0  0  0  0  0  0  0
  135.3484  140.3648  164.3166 C   0  0  0  0  0  0  0  0  0  0  0  0
  134.3055  141.1628  164.7486 C   0  0  0  0  0  0  0  0  0  0  0  0
  133.0249  140.9416  164.2772 C   0  0  0  0  0  0  0  0  0  0  0  0
  132.7872  139.9226  163.3739 C   0  0  0  0  0  0  0  0  0  0  0  0
  130.4460  135.9980  161.5179 C   0  0  0  0  0  0  0  0  0  0  0  0
  126.6331  133.4187  160.1300 C   0  0  0  0  0  0  0  0  0  0  0  0
  126.2853  132.0891  159.9762 C   0  0  0  0  0  0  0  0  0  0  0  0
  125.0356  131.6491  160.3708 C   0  0  0  0  0  0  0  0  0  0  0  0
  124.1266  132.5394  160.9094 C   0  0  0  0  0  0  0  0  0  0  0  0
  124.4710  133.8746  161.0594 C   0  0  0  0  0  0  0  0  0  0  0  0
  123.5786  134.7525  161.5885 O   0  0  0  0  0  0  0  0  0  0  0  0
  125.7280  134.3127  160.6679 C   0  0  0  0  0  0  0  0  0  0  0  0
  127.3264  134.5567  157.7681 H   0  0  0  0  0  0  0  0  0  0  0  0
  127.2830  135.8109  159.0304 H   0  0  0  0  0  0  0  0  0  0  0  0
  128.8385  135.3155  158.3211 H   0  0  0  0  0  0  0  0  0  0  0  0
  128.2727  134.4685  161.7301 H   0  0  0  0  0  0  0  0  0  0  0  0
  130.5388  133.6330  159.1040 H   0  0  0  0  0  0  0  0  0  0  0  0
  132.8005  134.5652  158.8870 H   0  0  0  0  0  0  0  0  0  0  0  0
  131.6357  137.8913  162.8220 H   0  0  0  0  0  0  0  0  0  0  0  0
  134.2853  137.2068  162.1239 H   0  0  0  0  0  0  0  0  0  0  0  0
  135.8125  138.0879  160.4520 H   0  0  0  0  0  0  0  0  0  0  0  0
  136.0630  138.9400  158.1552 H   0  0  0  0  0  0  0  0  0  0  0  0
  134.1197  139.8833  156.9733 H   0  0  0  0  0  0  0  0  0  0  0  0
  131.9240  139.9663  158.0848 H   0  0  0  0  0  0  0  0  0  0  0  0
  131.6716  139.1060  160.3780 H   0  0  0  0  0  0  0  0  0  0  0  0
  135.9239  138.7161  163.0834 H   0  0  0  0  0  0  0  0  0  0  0  0
  136.3488  140.5373  164.6852 H   0  0  0  0  0  0  0  0  0  0  0  0
  134.4911  141.9586  165.4545 H   0  0  0  0  0  0  0  0  0  0  0  0
  132.2101  141.5648  164.6149 H   0  0  0  0  0  0  0  0  0  0  0  0
  131.7868  139.7496  163.0059 H   0  0  0  0  0  0  0  0  0  0  0  0
  129.8034  136.4288  162.2714 H   0  0  0  0  0  0  0  0  0  0  0  0
  126.9927  131.3927  159.5510 H   0  0  0  0  0  0  0  0  0  0  0  0
  124.7680  130.6093  160.2535 H   0  0  0  0  0  0  0  0  0  0  0  0
  123.1488  132.1960  161.2131 H   0  0  0  0  0  0  0  0  0  0  0  0
  123.9095  135.6589  161.6530 H   0  0  0  0  0  0  0  0  0  0  0  0
  125.9983  135.3520  160.7834 H   0  0  0  0  0  0  0  0  0  0  0  0
  1  2  1  0
  1 33  1  0
  1 34  1  0
  1 35  1  0
  2  3  1  6
  2  4  1  0
  2 26  1  0
  4  5  1  0
  4 36  1  0
  5 25  1  0
  5  6  2  0
  6  7  1  0
  6 37  1  0
  7  8  2  0
  7 38  1  0
  8  9  1  0
  8 10  1  0
 10 11  1  0
 10 25  2  0
 11 12  1  0
 11 39  1  0
 12 13  1  0
 12 19  1  0
 12 40  1  0
 13 18  1  0
 13 14  2  0
 14 15  1  0
 14 41  1  0
 15 16  2  0
 15 42  1  0
 16 17  1  0
 16 43  1  0
 17 18  2  0
 17 44  1  0
 18 45  1  0
 19 24  1  0
 19 20  2  0
 20 21  1  0
 20 46  1  0
 21 22  2  0
 21 47  1  0
 22 23  1  0
 22 48  1  0
 23 24  2  0
 23 49  1  0
 24 50  1  0
 25 51  1  0
 26 32  1  0
 26 27  2  0
 27 28  1  0
 27 52  1  0
 28 29  2  0
 28 53  1  0
 29 30  1  0
 29 54  1  0
 30 31  1  0
 30 32  2  0
 31 55  1  0
 32 56  1  0
M  CHG  1   8   1
M  END
>  <DOCK_score>  (1) 
-49.063248

>  <SMILES>  (1) 
C[C@@H](Nc1cc[nH+]c(NC(c2ccccc2)c2ccccc2)c1)c1cccc(O)c1

$$$$
