NC(N)=CNC(NC1CCCCC1)=[NH+][C@H]1CCCC(Br)C1
     RDKit          3D

 50 51  0  0  1  0  0  0  0  0999 V2000
  126.4388  136.0299  161.8105 N   0  0  0  0  0  0  0  0  0  0  0  0
  127.4243  136.2040  162.7857 C   0  0  0  0  0  0  0  0  0  0  0  0
  127.0789  136.6935  164.0480 N   0  0  0  0  0  0  0  0  0  0  0  0
  128.6927  135.9033  162.5120 C   0  0  0  0  0  0  0  0  0  0  0  0
  129.0412  135.4092  161.2372 N   0  0  0  0  0  0  0  0  0  0  0  0
  130.2869  135.6644  160.7191 C   0  0  0  0  0  0  0  0  0  0  0  0
  130.6268  135.1824  159.4759 N   0  0  0  0  0  0  0  0  0  0  0  0
  130.0332  133.9358  158.9861 C   0  0  0  0  0  0  0  0  0  0  0  0
  130.3922  132.7921  159.9368 C   0  0  0  0  0  0  0  0  0  0  0  0
  129.7723  131.4902  159.4252 C   0  0  0  0  0  0  0  0  0  0  0  0
  130.3146  131.1814  158.0282 C   0  0  0  0  0  0  0  0  0  0  0  0
  129.9556  132.3252  157.0776 C   0  0  0  0  0  0  0  0  0  0  0  0
  130.5755  133.6271  157.5892 C   0  0  0  0  0  0  0  0  0  0  0  0
  131.1482  136.3639  161.4056 N   0  0  0  0  0  0  0  0  0  0  0  0
  131.1290  136.3406  162.3751 H   0  0  0  0  0  0  0  0  0  0  0  0
  132.1442  137.1844  160.7121 C   0  0  1  0  0  0  0  0  0  0  0  0
  132.7649  136.5472  160.0821 H   0  0  0  0  0  0  0  0  0  0  0  0
  131.4331  138.2233  159.8427 C   0  0  0  0  0  0  0  0  0  0  0  0
  132.4732  139.0803  159.1184 C   0  0  0  0  0  0  0  0  0  0  0  0
  133.3533  139.7926  160.1475 C   0  0  0  0  0  0  0  0  0  0  0  0
  134.0644  138.7534  161.0168 C   0  0  1  0  0  0  0  0  0  0  0  0
  135.1953  139.6688  162.3391 Br  0  0  0  0  0  0  0  0  0  0  0  0
  133.0242  137.8966  161.7411 C   0  0  0  0  0  0  0  0  0  0  0  0
  126.6785  135.6902  160.9341 H   0  0  0  0  0  0  0  0  0  0  0  0
  125.5145  136.2451  162.0111 H   0  0  0  0  0  0  0  0  0  0  0  0
  126.1553  136.9125  164.2474 H   0  0  0  0  0  0  0  0  0  0  0  0
  127.7631  136.8143  164.7251 H   0  0  0  0  0  0  0  0  0  0  0  0
  129.4543  136.0378  163.2657 H   0  0  0  0  0  0  0  0  0  0  0  0
  128.4010  134.8891  160.7270 H   0  0  0  0  0  0  0  0  0  0  0  0
  131.2593  135.6682  158.9238 H   0  0  0  0  0  0  0  0  0  0  0  0
  128.9494  134.0430  158.9396 H   0  0  0  0  0  0  0  0  0  0  0  0
  131.4759  132.6848  159.9832 H   0  0  0  0  0  0  0  0  0  0  0  0
  130.0058  133.0120  160.9320 H   0  0  0  0  0  0  0  0  0  0  0  0
  128.6885  131.5974  159.3788 H   0  0  0  0  0  0  0  0  0  0  0  0
  130.0281  130.6753  160.1025 H   0  0  0  0  0  0  0  0  0  0  0  0
  129.8730  130.2539  157.6638 H   0  0  0  0  0  0  0  0  0  0  0  0
  131.3983  131.0742  158.0748 H   0  0  0  0  0  0  0  0  0  0  0  0
  128.8719  132.4325  157.0311 H   0  0  0  0  0  0  0  0  0  0  0  0
  130.3419  132.1053  156.0824 H   0  0  0  0  0  0  0  0  0  0  0  0
  130.3197  134.4420  156.9118 H   0  0  0  0  0  0  0  0  0  0  0  0
  131.6592  133.5199  157.6356 H   0  0  0  0  0  0  0  0  0  0  0  0
  130.8061  137.7160  159.1096 H   0  0  0  0  0  0  0  0  0  0  0  0
  130.8124  138.8607  160.4726 H   0  0  0  0  0  0  0  0  0  0  0  0
  131.9666  139.8204  158.4991 H   0  0  0  0  0  0  0  0  0  0  0  0
  133.0940  138.4431  158.4885 H   0  0  0  0  0  0  0  0  0  0  0  0
  132.7326  140.4297  160.7775 H   0  0  0  0  0  0  0  0  0  0  0  0
  134.0943  140.4029  159.6314 H   0  0  0  0  0  0  0  0  0  0  0  0
  134.6851  138.1163  160.3868 H   0  0  0  0  0  0  0  0  0  0  0  0
  132.4036  138.5339  162.3710 H   0  0  0  0  0  0  0  0  0  0  0  0
  133.5309  137.1564  162.3604 H   0  0  0  0  0  0  0  0  0  0  0  0
  1  2  1  0
  1 24  1  0
  1 25  1  0
  2  3  1  0
  2  4  2  0
  3 26  1  0
  3 27  1  0
  4  5  1  0
  4 28  1  0
  5 29  1  0
  6  5  1  0
  6  7  1  0
  6 14  2  0
  7  8  1  0
  7 30  1  0
  8 13  1  0
  8  9  1  0
  8 31  1  0
  9 10  1  0
  9 32  1  0
  9 33  1  0
 10 11  1  0
 10 34  1  0
 10 35  1  0
 11 12  1  0
 11 36  1  0
 11 37  1  0
 12 13  1  0
 12 38  1  0
 12 39  1  0
 13 40  1  0
 13 41  1  0
 14 15  1  0
 14 16  1  0
 16 17  1  6
 16 23  1  0
 16 18  1  0
 18 19  1  0
 18 42  1  0
 18 43  1  0
 19 20  1  0
 19 44  1  0
 19 45  1  0
 20 21  1  0
 20 46  1  0
 20 47  1  0
 21 22  1  0
 21 23  1  0
 21 48  1  6
 23 49  1  0
 23 50  1  0
M  CHG  1  14   1
M  END
>  <DOCK_score>  (1) 
-42.652061

>  <SMILES>  (1) 
NC(N)=CNC(NC1CCCCC1)=[NH+][C@H]1CCCC(Br)C1

$$$$
