Clc1ccc([C@@H](Nc2cccc(OC3CC[NH2+]C3)c2)c2ccccc2Cl)cc1
     RDKit          3D

 51 54  0  0  1  0  0  0  0  0999 V2000
  125.6481  134.8758  168.0088 Cl  0  0  0  0  0  0  0  0  0  0  0  0
  126.1646  135.2330  166.3903 C   0  0  0  0  0  0  0  0  0  0  0  0
  127.5054  135.1538  166.0583 C   0  0  0  0  0  0  0  0  0  0  0  0
  127.9158  135.4377  164.7695 C   0  0  0  0  0  0  0  0  0  0  0  0
  126.9872  135.8009  163.8122 C   0  0  0  0  0  0  0  0  0  0  0  0
  127.4353  136.1106  162.4071 C   0  0  1  0  0  0  0  0  0  0  0  0
  128.3229  135.5233  162.1712 H   0  0  0  0  0  0  0  0  0  0  0  0
  126.3631  135.7743  161.4672 N   0  0  0  0  0  0  0  0  0  0  0  0
  126.2956  134.4937  160.9139 C   0  0  0  0  0  0  0  0  0  0  0  0
  125.1721  133.7031  161.1242 C   0  0  0  0  0  0  0  0  0  0  0  0
  125.1055  132.4369  160.5765 C   0  0  0  0  0  0  0  0  0  0  0  0
  126.1547  131.9529  159.8180 C   0  0  0  0  0  0  0  0  0  0  0  0
  127.2791  132.7379  159.6046 C   0  0  0  0  0  0  0  0  0  0  0  0
  128.3100  132.2604  158.8589 O   0  0  0  0  0  0  0  0  0  0  0  0
  129.0826  133.2176  158.1319 C   0  0  1  0  0  0  0  0  0  0  0  0
  130.3186  133.6422  158.9514 C   0  0  0  0  0  0  0  0  0  0  0  0
  131.5319  133.2265  158.0920 C   0  0  0  0  0  0  0  0  0  0  0  0
  131.0070  133.1758  156.7031 N   0  0  0  0  0  0  0  0  0  0  0  0
  130.9452  134.1050  156.3150 H   0  0  0  0  0  0  0  0  0  0  0  0
  131.5921  132.5905  156.1260 H   0  0  0  0  0  0  0  0  0  0  0  0
  129.6508  132.5821  156.8448 C   0  0  0  0  0  0  0  0  0  0  0  0
  127.3480  134.0110  160.1485 C   0  0  0  0  0  0  0  0  0  0  0  0
  127.7596  137.5780  162.2952 C   0  0  0  0  0  0  0  0  0  0  0  0
  127.0936  138.4955  163.0860 C   0  0  0  0  0  0  0  0  0  0  0  0
  127.3915  139.8414  162.9841 C   0  0  0  0  0  0  0  0  0  0  0  0
  128.3550  140.2710  162.0915 C   0  0  0  0  0  0  0  0  0  0  0  0
  129.0221  139.3546  161.2997 C   0  0  0  0  0  0  0  0  0  0  0  0
  128.7198  138.0077  161.3969 C   0  0  0  0  0  0  0  0  0  0  0  0
  129.5510  136.8570  160.3974 Cl  0  0  0  0  0  0  0  0  0  0  0  0
  125.6479  135.8858  164.1446 C   0  0  0  0  0  0  0  0  0  0  0  0
  125.2355  135.5965  165.4318 C   0  0  0  0  0  0  0  0  0  0  0  0
  128.2311  134.8704  166.8063 H   0  0  0  0  0  0  0  0  0  0  0  0
  128.9624  135.3755  164.5103 H   0  0  0  0  0  0  0  0  0  0  0  0
  125.7000  136.4410  161.2292 H   0  0  0  0  0  0  0  0  0  0  0  0
  124.3510  134.0788  161.7165 H   0  0  0  0  0  0  0  0  0  0  0  0
  124.2317  131.8239  160.7410 H   0  0  0  0  0  0  0  0  0  0  0  0
  126.0992  130.9628  159.3905 H   0  0  0  0  0  0  0  0  0  0  0  0
  128.4734  134.0878  157.8873 H   0  0  0  0  0  0  0  0  0  0  0  0
  130.3172  134.7209  159.1076 H   0  0  0  0  0  0  0  0  0  0  0  0
  130.3359  133.1204  159.9082 H   0  0  0  0  0  0  0  0  0  0  0  0
  132.3261  133.9689  158.1712 H   0  0  0  0  0  0  0  0  0  0  0  0
  131.8969  132.2463  158.3986 H   0  0  0  0  0  0  0  0  0  0  0  0
  129.7195  131.4997  156.9539 H   0  0  0  0  0  0  0  0  0  0  0  0
  129.0294  132.8400  155.9872 H   0  0  0  0  0  0  0  0  0  0  0  0
  128.2205  134.6248  159.9799 H   0  0  0  0  0  0  0  0  0  0  0  0
  126.3404  138.1606  163.7840 H   0  0  0  0  0  0  0  0  0  0  0  0
  126.8711  140.5577  163.6025 H   0  0  0  0  0  0  0  0  0  0  0  0
  128.5887  141.3224  162.0125 H   0  0  0  0  0  0  0  0  0  0  0  0
  129.7753  139.6902  160.6024 H   0  0  0  0  0  0  0  0  0  0  0  0
  124.9233  136.1738  163.3974 H   0  0  0  0  0  0  0  0  0  0  0  0
  124.1887  135.6586  165.6902 H   0  0  0  0  0  0  0  0  0  0  0  0
  1  2  1  0
  2 31  2  0
  2  3  1  0
  3  4  2  0
  3 32  1  0
  4  5  1  0
  4 33  1  0
  5  6  1  0
  5 30  2  0
  6  7  1  6
  6  8  1  0
  6 23  1  0
  8  9  1  0
  8 34  1  0
  9 22  1  0
  9 10  2  0
 10 11  1  0
 10 35  1  0
 11 12  2  0
 11 36  1  0
 12 13  1  0
 12 37  1  0
 13 14  1  0
 13 22  2  0
 14 15  1  0
 15 21  1  0
 15 16  1  0
 15 38  1  6
 16 17  1  0
 16 39  1  0
 16 40  1  0
 17 18  1  0
 17 41  1  0
 17 42  1  0
 18 19  1  0
 18 20  1  0
 18 21  1  0
 21 43  1  0
 21 44  1  0
 22 45  1  0
 23 28  1  0
 23 24  2  0
 24 25  1  0
 24 46  1  0
 25 26  2  0
 25 47  1  0
 26 27  1  0
 26 48  1  0
 27 28  2  0
 27 49  1  0
 28 29  1  0
 30 31  1  0
 30 50  1  0
 31 51  1  0
M  CHG  1  18   1
M  END
>  <DOCK_score>  (1) 
-42.748299

>  <SMILES>  (1) 
Clc1ccc([C@@H](Nc2cccc(OC3CC[NH2+]C3)c2)c2ccccc2Cl)cc1

$$$$
