CCc1ccc(-c2c[nH]c(N[C@@H]3COCCC3(O)c3ccccc3)[nH+]2)cc1
     RDKit          3D

 53 56  0  0  1  0  0  0  0  0999 V2000
  130.3129  128.6407  152.0178 C   0  0  0  0  0  0  0  0  0  0  0  0
  131.4484  129.6124  152.3457 C   0  0  0  0  0  0  0  0  0  0  0  0
  131.0935  130.4026  153.5790 C   0  0  0  0  0  0  0  0  0  0  0  0
  131.4491  129.9263  154.8282 C   0  0  0  0  0  0  0  0  0  0  0  0
  131.1262  130.6450  155.9612 C   0  0  0  0  0  0  0  0  0  0  0  0
  130.4403  131.8528  155.8450 C   0  0  0  0  0  0  0  0  0  0  0  0
  130.0903  132.6299  157.0590 C   0  0  0  0  0  0  0  0  0  0  0  0
  129.3123  132.2017  158.0839 C   0  0  0  0  0  0  0  0  0  0  0  0
  129.2530  133.2280  158.9952 N   0  0  0  0  0  0  0  0  0  0  0  0
  128.7724  133.2212  159.8377 H   0  0  0  0  0  0  0  0  0  0  0  0
  129.9907  134.2572  158.4963 C   0  0  0  0  0  0  0  0  0  0  0  0
  130.1845  135.4824  159.1109 N   0  0  0  0  0  0  0  0  0  0  0  0
  129.5685  135.7550  160.4117 C   0  0  2  0  0  0  0  0  0  0  0  0
  129.6329  134.8663  161.0396 H   0  0  0  0  0  0  0  0  0  0  0  0
  128.0990  136.1353  160.2125 C   0  0  0  0  0  0  0  0  0  0  0  0
  127.5158  136.4568  161.4768 O   0  0  0  0  0  0  0  0  0  0  0  0
  128.1294  137.5656  162.1374 C   0  0  0  0  0  0  0  0  0  0  0  0
  129.6001  137.2427  162.4140 C   0  0  0  0  0  0  0  0  0  0  0  0
  130.3007  136.9161  161.0916 C   0  0  2  0  0  0  0  0  0  0  0  0
  130.2726  138.0632  160.2398 O   0  0  0  0  0  0  0  0  0  0  0  0
  131.7304  136.5238  161.3619 C   0  0  0  0  0  0  0  0  0  0  0  0
  132.1835  135.2695  160.9983 C   0  0  0  0  0  0  0  0  0  0  0  0
  133.4962  134.9111  161.2423 C   0  0  0  0  0  0  0  0  0  0  0  0
  134.3533  135.8045  161.8580 C   0  0  0  0  0  0  0  0  0  0  0  0
  133.8987  137.0564  162.2264 C   0  0  0  0  0  0  0  0  0  0  0  0
  132.5873  137.4163  161.9786 C   0  0  0  0  0  0  0  0  0  0  0  0
  130.4919  133.8949  157.3406 N   0  0  0  0  0  0  0  0  0  0  0  0
  131.0596  134.4435  156.7770 H   0  0  0  0  0  0  0  0  0  0  0  0
  130.0795  132.3248  154.5842 C   0  0  0  0  0  0  0  0  0  0  0  0
  130.4120  131.5999  153.4579 C   0  0  0  0  0  0  0  0  0  0  0  0
  130.1647  127.9592  152.8556 H   0  0  0  0  0  0  0  0  0  0  0  0
  129.3954  129.2011  151.8387 H   0  0  0  0  0  0  0  0  0  0  0  0
  130.5698  128.0695  151.1258 H   0  0  0  0  0  0  0  0  0  0  0  0
  131.5965  130.2940  151.5081 H   0  0  0  0  0  0  0  0  0  0  0  0
  132.3659  129.0520  152.5248 H   0  0  0  0  0  0  0  0  0  0  0  0
  131.9806  128.9903  154.9171 H   0  0  0  0  0  0  0  0  0  0  0  0
  131.4040  130.2722  156.9360 H   0  0  0  0  0  0  0  0  0  0  0  0
  128.8342  131.2372  158.1693 H   0  0  0  0  0  0  0  0  0  0  0  0
  130.7283  136.1606  158.6801 H   0  0  0  0  0  0  0  0  0  0  0  0
  127.5636  135.2965  159.7679 H   0  0  0  0  0  0  0  0  0  0  0  0
  128.0337  136.9997  159.5517 H   0  0  0  0  0  0  0  0  0  0  0  0
  127.6158  137.7569  163.0796 H   0  0  0  0  0  0  0  0  0  0  0  0
  128.0645  138.4486  161.5018 H   0  0  0  0  0  0  0  0  0  0  0  0
  129.6651  136.3840  163.0824 H   0  0  0  0  0  0  0  0  0  0  0  0
  130.0810  138.1038  162.8781 H   0  0  0  0  0  0  0  0  0  0  0  0
  130.6997  137.9273  159.3830 H   0  0  0  0  0  0  0  0  0  0  0  0
  131.5128  134.5706  160.5206 H   0  0  0  0  0  0  0  0  0  0  0  0
  133.8513  133.9328  160.9543 H   0  0  0  0  0  0  0  0  0  0  0  0
  135.3779  135.5228  162.0512 H   0  0  0  0  0  0  0  0  0  0  0  0
  134.5684  137.7539  162.7076 H   0  0  0  0  0  0  0  0  0  0  0  0
  132.2321  138.3948  162.2663 H   0  0  0  0  0  0  0  0  0  0  0  0
  129.5437  133.2578  154.4887 H   0  0  0  0  0  0  0  0  0  0  0  0
  130.1362  131.9666  152.4802 H   0  0  0  0  0  0  0  0  0  0  0  0
  1  2  1  0
  1 31  1  0
  1 32  1  0
  1 33  1  0
  2  3  1  0
  2 34  1  0
  2 35  1  0
  3 30  2  0
  3  4  1  0
  4  5  2  0
  4 36  1  0
  5  6  1  0
  5 37  1  0
  6  7  1  0
  6 29  2  0
  7 27  1  0
  7  8  2  0
  8  9  1  0
  8 38  1  0
  9 10  1  0
  9 11  1  0
 11 12  1  0
 11 27  2  0
 12 13  1  0
 12 39  1  0
 13 14  1  1
 13 19  1  0
 13 15  1  0
 15 16  1  0
 15 40  1  0
 15 41  1  0
 16 17  1  0
 17 18  1  0
 17 42  1  0
 17 43  1  0
 18 19  1  0
 18 44  1  0
 18 45  1  0
 19 20  1  6
 19 21  1  0
 20 46  1  0
 21 26  1  0
 21 22  2  0
 22 23  1  0
 22 47  1  0
 23 24  2  0
 23 48  1  0
 24 25  1  0
 24 49  1  0
 25 26  2  0
 25 50  1  0
 26 51  1  0
 27 28  1  0
 29 30  1  0
 29 52  1  0
 30 53  1  0
M  CHG  1  27   1
M  END
>  <DOCK_score>  (1) 
-57.601074

>  <SMILES>  (1) 
CCc1ccc(-c2c[nH]c(N[C@@H]3COCCC3(O)c3ccccc3)[nH+]2)cc1

$$$$
