Cc1cccnc1Sc1ccc(C2(O)C=CC(=O)C=C2)cc1Nc1[nH]cc(-c2ccccc2)[nH+]1
     RDKit          3D

 57 61  0  0  1  0  0  0  0  0999 V2000
  130.3609  132.6191  154.7919 C   0  0  0  0  0  0  0  0  0  0  0  0
  130.2111  131.9081  156.1121 C   0  0  0  0  0  0  0  0  0  0  0  0
  130.6775  130.6153  156.2689 C   0  0  0  0  0  0  0  0  0  0  0  0
  130.5139  129.9966  157.5013 C   0  0  0  0  0  0  0  0  0  0  0  0
  129.8998  130.6859  158.5282 C   0  0  0  0  0  0  0  0  0  0  0  0
  129.4694  131.9204  158.3521 N   0  0  0  0  0  0  0  0  0  0  0  0
  129.6069  132.5450  157.1916 C   0  0  0  0  0  0  0  0  0  0  0  0
  129.0129  134.1940  157.0117 S   0  0  0  0  0  0  0  0  0  0  0  0
  128.3513  134.5531  158.6048 C   0  0  0  0  0  0  0  0  0  0  0  0
  127.0219  134.2720  158.8857 C   0  0  0  0  0  0  0  0  0  0  0  0
  126.5067  134.5494  160.1379 C   0  0  0  0  0  0  0  0  0  0  0  0
  127.3094  135.1175  161.1103 C   0  0  0  0  0  0  0  0  0  0  0  0
  126.7391  135.4223  162.4715 C   0  0  0  0  0  0  0  0  0  0  0  0
  125.3546  135.0688  162.4790 O   0  0  0  0  0  0  0  0  0  0  0  0
  127.4536  134.5920  163.4905 C   0  0  0  0  0  0  0  0  0  0  0  0
  128.3754  135.0816  164.3065 C   0  0  0  0  0  0  0  0  0  0  0  0
  128.7159  136.5149  164.2363 C   0  0  0  0  0  0  0  0  0  0  0  0
  129.7374  136.9441  164.7393 O   0  0  0  0  0  0  0  0  0  0  0  0
  127.7762  137.4104  163.5360 C   0  0  0  0  0  0  0  0  0  0  0  0
  126.8623  136.8914  162.7269 C   0  0  0  0  0  0  0  0  0  0  0  0
  128.6355  135.3999  160.8399 C   0  0  0  0  0  0  0  0  0  0  0  0
  129.1626  135.1204  159.5879 C   0  0  0  0  0  0  0  0  0  0  0  0
  130.5051  135.4059  159.3116 N   0  0  0  0  0  0  0  0  0  0  0  0
  131.4452  135.3648  160.3277 C   0  0  0  0  0  0  0  0  0  0  0  0
  131.3870  134.5681  161.4301 N   0  0  0  0  0  0  0  0  0  0  0  0
  130.6860  133.9323  161.6431 H   0  0  0  0  0  0  0  0  0  0  0  0
  132.5054  134.8284  162.1832 C   0  0  0  0  0  0  0  0  0  0  0  0
  133.2107  135.7815  161.5245 C   0  0  0  0  0  0  0  0  0  0  0  0
  134.4934  136.3805  161.9673 C   0  0  0  0  0  0  0  0  0  0  0  0
  134.8126  137.6904  161.6137 C   0  0  0  0  0  0  0  0  0  0  0  0
  136.0049  138.2445  162.0334 C   0  0  0  0  0  0  0  0  0  0  0  0
  136.8874  137.4987  162.7937 C   0  0  0  0  0  0  0  0  0  0  0  0
  136.5784  136.1963  163.1428 C   0  0  0  0  0  0  0  0  0  0  0  0
  135.3866  135.6339  162.7337 C   0  0  0  0  0  0  0  0  0  0  0  0
  132.5352  136.0905  160.3896 N   0  0  0  0  0  0  0  0  0  0  0  0
  132.8140  136.7442  159.7295 H   0  0  0  0  0  0  0  0  0  0  0  0
  131.3115  133.1521  154.7721 H   0  0  0  0  0  0  0  0  0  0  0  0
  130.3362  131.8904  153.9817 H   0  0  0  0  0  0  0  0  0  0  0  0
  129.5435  133.3292  154.6668 H   0  0  0  0  0  0  0  0  0  0  0  0
  131.1546  130.0973  155.4501 H   0  0  0  0  0  0  0  0  0  0  0  0
  130.8637  128.9864  157.6551 H   0  0  0  0  0  0  0  0  0  0  0  0
  129.7706  130.2083  159.4882 H   0  0  0  0  0  0  0  0  0  0  0  0
  126.3909  133.8327  158.1273 H   0  0  0  0  0  0  0  0  0  0  0  0
  125.4727  134.3266  160.3562 H   0  0  0  0  0  0  0  0  0  0  0  0
  124.8234  135.5453  161.8262 H   0  0  0  0  0  0  0  0  0  0  0  0
  127.2083  133.5430  163.5639 H   0  0  0  0  0  0  0  0  0  0  0  0
  128.8714  134.4379  165.0179 H   0  0  0  0  0  0  0  0  0  0  0  0
  127.8316  138.4792  163.6811 H   0  0  0  0  0  0  0  0  0  0  0  0
  126.1752  137.5601  162.2296 H   0  0  0  0  0  0  0  0  0  0  0  0
  129.2607  135.8391  161.6032 H   0  0  0  0  0  0  0  0  0  0  0  0
  130.7768  135.6328  158.4084 H   0  0  0  0  0  0  0  0  0  0  0  0
  132.7710  134.3652  163.1220 H   0  0  0  0  0  0  0  0  0  0  0  0
  134.1264  138.2719  161.0160 H   0  0  0  0  0  0  0  0  0  0  0  0
  136.2511  139.2610  161.7639 H   0  0  0  0  0  0  0  0  0  0  0  0
  137.8212  137.9350  163.1165 H   0  0  0  0  0  0  0  0  0  0  0  0
  137.2711  135.6188  163.7370 H   0  0  0  0  0  0  0  0  0  0  0  0
  135.1461  134.6170  163.0071 H   0  0  0  0  0  0  0  0  0  0  0  0
  1  2  1  0
  1 37  1  0
  1 38  1  0
  1 39  1  0
  2  7  2  0
  2  3  1  0
  3  4  2  0
  3 40  1  0
  4  5  1  0
  4 41  1  0
  5  6  2  0
  5 42  1  0
  6  7  1  0
  7  8  1  0
  8  9  1  0
  9 22  1  0
  9 10  2  0
 10 11  1  0
 10 43  1  0
 11 12  2  0
 11 44  1  0
 12 13  1  0
 12 21  1  0
 13 20  1  0
 13 14  1  0
 13 15  1  0
 14 45  1  0
 15 16  2  0
 15 46  1  0
 16 17  1  0
 16 47  1  0
 17 18  2  0
 17 19  1  0
 19 20  2  0
 19 48  1  0
 20 49  1  0
 21 22  2  0
 21 50  1  0
 22 23  1  0
 23 51  1  0
 24 23  1  0
 24 35  2  0
 24 25  1  0
 25 26  1  0
 25 27  1  0
 27 28  2  0
 27 52  1  0
 28 29  1  0
 28 35  1  0
 29 34  1  0
 29 30  2  0
 30 31  1  0
 30 53  1  0
 31 32  2  0
 31 54  1  0
 32 33  1  0
 32 55  1  0
 33 34  2  0
 33 56  1  0
 34 57  1  0
 35 36  1  0
M  CHG  1  35   1
M  END
>  <DOCK_score>  (1) 
-54.880253

>  <SMILES>  (1) 
Cc1cccnc1Sc1ccc(C2(O)C=CC(=O)C=C2)cc1Nc1[nH]cc(-c2ccccc2)[nH+]1

$$$$
