Cn1cc(CCCNc2cccc([C@@H]([NH3+])C(=O)Nc3cccc(O)c3)c2)cn1
     RDKit          3D

 54 56  0  0  1  0  0  0  0  0999 V2000
  129.7269  141.6072  162.5035 C   0  0  0  0  0  0  0  0  0  0  0  0
  130.8696  141.0042  161.8129 N   0  0  0  0  0  0  0  0  0  0  0  0
  132.1054  140.8298  162.3263 C   0  0  0  0  0  0  0  0  0  0  0  0
  132.8685  140.2446  161.3742 C   0  0  0  0  0  0  0  0  0  0  0  0
  134.3210  139.8669  161.5106 C   0  0  0  0  0  0  0  0  0  0  0  0
  134.4283  138.4412  162.0555 C   0  0  0  0  0  0  0  0  0  0  0  0
  133.7381  137.4737  161.0921 C   0  0  0  0  0  0  0  0  0  0  0  0
  133.8409  136.1087  161.6139 N   0  0  0  0  0  0  0  0  0  0  0  0
  132.8418  135.1750  161.3292 C   0  0  0  0  0  0  0  0  0  0  0  0
  132.6992  134.0440  162.1234 C   0  0  0  0  0  0  0  0  0  0  0  0
  131.7107  133.1228  161.8390 C   0  0  0  0  0  0  0  0  0  0  0  0
  130.8596  133.3277  160.7683 C   0  0  0  0  0  0  0  0  0  0  0  0
  131.0024  134.4492  159.9725 C   0  0  0  0  0  0  0  0  0  0  0  0
  130.0767  134.6653  158.8031 C   0  0  1  0  0  0  0  0  0  0  0  0
  129.9505  135.7344  158.6322 H   0  0  0  0  0  0  0  0  0  0  0  0
  130.6504  134.0420  157.6028 N   0  0  0  0  0  0  0  0  0  0  0  0
  130.7671  133.0523  157.7610 H   0  0  0  0  0  0  0  0  0  0  0  0
  130.0305  134.1865  156.8199 H   0  0  0  0  0  0  0  0  0  0  0  0
  131.5471  134.4588  157.4034 H   0  0  0  0  0  0  0  0  0  0  0  0
  128.7371  134.0425  159.1010 C   0  0  0  0  0  0  0  0  0  0  0  0
  128.3030  133.1658  158.3842 O   0  0  0  0  0  0  0  0  0  0  0  0
  128.0191  134.4637  160.1611 N   0  0  0  0  0  0  0  0  0  0  0  0
  126.7728  133.8894  160.4345 C   0  0  0  0  0  0  0  0  0  0  0  0
  126.5230  132.5691  160.0820 C   0  0  0  0  0  0  0  0  0  0  0  0
  125.2946  132.0005  160.3572 C   0  0  0  0  0  0  0  0  0  0  0  0
  124.3074  132.7464  160.9732 C   0  0  0  0  0  0  0  0  0  0  0  0
  124.5494  134.0673  161.3223 C   0  0  0  0  0  0  0  0  0  0  0  0
  123.5777  134.7997  161.9275 O   0  0  0  0  0  0  0  0  0  0  0  0
  125.7829  134.6398  161.0530 C   0  0  0  0  0  0  0  0  0  0  0  0
  131.9891  135.3748  160.2514 C   0  0  0  0  0  0  0  0  0  0  0  0
  132.0693  140.0467  160.2436 C   0  0  0  0  0  0  0  0  0  0  0  0
  130.8708  140.5016  160.5054 N   0  0  0  0  0  0  0  0  0  0  0  0
  129.1696  140.8320  163.0293 H   0  0  0  0  0  0  0  0  0  0  0  0
  130.0842  142.3472  163.2195 H   0  0  0  0  0  0  0  0  0  0  0  0
  129.0764  142.0913  161.7749 H   0  0  0  0  0  0  0  0  0  0  0  0
  132.4282  141.1096  163.3182 H   0  0  0  0  0  0  0  0  0  0  0  0
  134.8128  140.5562  162.1970 H   0  0  0  0  0  0  0  0  0  0  0  0
  134.8034  139.9201  160.5346 H   0  0  0  0  0  0  0  0  0  0  0  0
  133.9460  138.3881  163.0315 H   0  0  0  0  0  0  0  0  0  0  0  0
  135.4789  138.1682  162.1541 H   0  0  0  0  0  0  0  0  0  0  0  0
  134.2205  137.5268  160.1161 H   0  0  0  0  0  0  0  0  0  0  0  0
  132.6875  137.7468  160.9935 H   0  0  0  0  0  0  0  0  0  0  0  0
  134.6029  135.8531  162.1571 H   0  0  0  0  0  0  0  0  0  0  0  0
  133.3604  133.8858  162.9626 H   0  0  0  0  0  0  0  0  0  0  0  0
  131.5993  132.2435  162.4560 H   0  0  0  0  0  0  0  0  0  0  0  0
  130.0844  132.6079  160.5509 H   0  0  0  0  0  0  0  0  0  0  0  0
  128.3664  135.1648  160.7344 H   0  0  0  0  0  0  0  0  0  0  0  0
  127.2912  131.9855  159.5966 H   0  0  0  0  0  0  0  0  0  0  0  0
  125.1036  130.9727  160.0862 H   0  0  0  0  0  0  0  0  0  0  0  0
  123.3465  132.3004  161.1834 H   0  0  0  0  0  0  0  0  0  0  0  0
  123.8394  135.7079  162.1320 H   0  0  0  0  0  0  0  0  0  0  0  0
  125.9732  135.6677  161.3242 H   0  0  0  0  0  0  0  0  0  0  0  0
  132.0970  136.2530  159.6321 H   0  0  0  0  0  0  0  0  0  0  0  0
  132.3867  139.5959  159.3149 H   0  0  0  0  0  0  0  0  0  0  0  0
  1  2  1  0
  1 33  1  0
  1 34  1  0
  1 35  1  0
  2 32  1  0
  2  3  1  0
  3  4  2  0
  3 36  1  0
  4  5  1  0
  4 31  1  0
  5  6  1  0
  5 37  1  0
  5 38  1  0
  6  7  1  0
  6 39  1  0
  6 40  1  0
  7  8  1  0
  7 41  1  0
  7 42  1  0
  8  9  1  0
  8 43  1  0
  9 30  1  0
  9 10  2  0
 10 11  1  0
 10 44  1  0
 11 12  2  0
 11 45  1  0
 12 13  1  0
 12 46  1  0
 13 14  1  0
 13 30  2  0
 14 15  1  6
 14 16  1  0
 14 20  1  0
 16 17  1  0
 16 18  1  0
 16 19  1  0
 20 21  2  0
 20 22  1  0
 22 23  1  0
 22 47  1  0
 23 29  1  0
 23 24  2  0
 24 25  1  0
 24 48  1  0
 25 26  2  0
 25 49  1  0
 26 27  1  0
 26 50  1  0
 27 28  1  0
 27 29  2  0
 28 51  1  0
 29 52  1  0
 30 53  1  0
 31 32  2  0
 31 54  1  0
M  CHG  1  16   1
M  END
>  <DOCK_score>  (1) 
-48.40115

>  <SMILES>  (1) 
Cn1cc(CCCNc2cccc([C@@H]([NH3+])C(=O)Nc3cccc(O)c3)c2)cn1

$$$$
