Oc1cccc(-c2c[nH]c(N[C@H]3C[C@H]3NC3c4cc(O)ccc4-c4ccc(O)cc43)[nH+]2)c1
     RDKit          3D

 55 60  0  0  1  0  0  0  0  0999 V2000
  123.6969  134.9122  161.7888 O   0  0  0  0  0  0  0  0  0  0  0  0
  124.5814  134.1312  161.1145 C   0  0  0  0  0  0  0  0  0  0  0  0
  124.2857  132.7962  160.8740 C   0  0  0  0  0  0  0  0  0  0  0  0
  125.1822  131.9982  160.1884 C   0  0  0  0  0  0  0  0  0  0  0  0
  126.3746  132.5255  159.7347 C   0  0  0  0  0  0  0  0  0  0  0  0
  126.6816  133.8634  159.9767 C   0  0  0  0  0  0  0  0  0  0  0  0
  127.9645  134.4311  159.4948 C   0  0  0  0  0  0  0  0  0  0  0  0
  128.1739  135.0228  158.2928 C   0  0  0  0  0  0  0  0  0  0  0  0
  129.4948  135.3983  158.2579 N   0  0  0  0  0  0  0  0  0  0  0  0
  129.9460  135.8451  157.5246 H   0  0  0  0  0  0  0  0  0  0  0  0
  130.0522  135.0333  159.4446 C   0  0  0  0  0  0  0  0  0  0  0  0
  131.3706  135.2387  159.8133 N   0  0  0  0  0  0  0  0  0  0  0  0
  131.8416  134.7938  161.1272 C   0  0  1  0  0  0  0  0  0  0  0  0
  131.7538  133.7248  161.3209 H   0  0  0  0  0  0  0  0  0  0  0  0
  133.0411  135.5257  161.7328 C   0  0  0  0  0  0  0  0  0  0  0  0
  131.6407  135.7448  162.3089 C   0  0  1  0  0  0  0  0  0  0  0  0
  131.4210  135.3013  163.2801 H   0  0  0  0  0  0  0  0  0  0  0  0
  130.9898  137.0337  162.0392 N   0  0  0  0  0  0  0  0  0  0  0  0
  130.4444  137.6163  163.2724 C   0  0  0  0  0  0  0  0  0  0  0  0
  129.0860  137.0290  163.5679 C   0  0  0  0  0  0  0  0  0  0  0  0
  128.6687  135.7402  163.8142 C   0  0  0  0  0  0  0  0  0  0  0  0
  127.3274  135.4787  164.0600 C   0  0  0  0  0  0  0  0  0  0  0  0
  126.9166  134.2068  164.3042 O   0  0  0  0  0  0  0  0  0  0  0  0
  126.4062  136.5174  164.0565 C   0  0  0  0  0  0  0  0  0  0  0  0
  126.8185  137.8090  163.8093 C   0  0  0  0  0  0  0  0  0  0  0  0
  128.1669  138.0771  163.5615 C   0  0  0  0  0  0  0  0  0  0  0  0
  128.8710  139.3506  163.2714 C   0  0  0  0  0  0  0  0  0  0  0  0
  128.3945  140.6590  163.1608 C   0  0  0  0  0  0  0  0  0  0  0  0
  129.2659  141.6889  162.8795 C   0  0  0  0  0  0  0  0  0  0  0  0
  130.6192  141.4311  162.7059 C   0  0  0  0  0  0  0  0  0  0  0  0
  131.4750  142.4496  162.4290 O   0  0  0  0  0  0  0  0  0  0  0  0
  131.0976  140.1323  162.8147 C   0  0  0  0  0  0  0  0  0  0  0  0
  130.2294  139.0996  163.0957 C   0  0  0  0  0  0  0  0  0  0  0  0
  129.1347  134.4556  160.1811 N   0  0  0  0  0  0  0  0  0  0  0  0
  129.2706  134.1018  161.0739 H   0  0  0  0  0  0  0  0  0  0  0  0
  125.7774  134.6673  160.6673 C   0  0  0  0  0  0  0  0  0  0  0  0
  123.9900  135.8262  161.9075 H   0  0  0  0  0  0  0  0  0  0  0  0
  123.3523  132.3801  161.2233 H   0  0  0  0  0  0  0  0  0  0  0  0
  124.9472  130.9604  160.0036 H   0  0  0  0  0  0  0  0  0  0  0  0
  127.0713  131.9004  159.1958 H   0  0  0  0  0  0  0  0  0  0  0  0
  127.4428  135.1683  157.5113 H   0  0  0  0  0  0  0  0  0  0  0  0
  131.9826  135.6772  159.2016 H   0  0  0  0  0  0  0  0  0  0  0  0
  133.7426  134.9382  162.3249 H   0  0  0  0  0  0  0  0  0  0  0  0
  133.4798  136.3383  161.1535 H   0  0  0  0  0  0  0  0  0  0  0  0
  130.2718  136.9364  161.3369 H   0  0  0  0  0  0  0  0  0  0  0  0
  131.1222  137.4320  164.1059 H   0  0  0  0  0  0  0  0  0  0  0  0
  129.3856  134.9324  163.8164 H   0  0  0  0  0  0  0  0  0  0  0  0
  127.6288  133.5528  164.2861 H   0  0  0  0  0  0  0  0  0  0  0  0
  125.3632  136.3127  164.2479 H   0  0  0  0  0  0  0  0  0  0  0  0
  126.0988  138.6141  163.8067 H   0  0  0  0  0  0  0  0  0  0  0  0
  127.3427  140.8635  163.2954 H   0  0  0  0  0  0  0  0  0  0  0  0
  128.8952  142.6996  162.7941 H   0  0  0  0  0  0  0  0  0  0  0  0
  132.3957  142.1727  162.3252 H   0  0  0  0  0  0  0  0  0  0  0  0
  132.1500  139.9313  162.6797 H   0  0  0  0  0  0  0  0  0  0  0  0
  126.0085  135.7058  160.8532 H   0  0  0  0  0  0  0  0  0  0  0  0
  1  2  1  0
  1 37  1  0
  2 36  2  0
  2  3  1  0
  3  4  2  0
  3 38  1  0
  4  5  1  0
  4 39  1  0
  5  6  2  0
  5 40  1  0
  6  7  1  0
  6 36  1  0
  7 34  1  0
  7  8  2  0
  8  9  1  0
  8 41  1  0
  9 10  1  0
  9 11  1  0
 11 12  1  0
 11 34  2  0
 12 13  1  0
 12 42  1  0
 13 14  1  1
 13 16  1  0
 13 15  1  0
 15 16  1  0
 15 43  1  0
 15 44  1  0
 16 17  1  1
 16 18  1  0
 18 19  1  0
 18 45  1  0
 19 33  1  0
 19 20  1  0
 19 46  1  0
 20 26  1  0
 20 21  2  0
 21 22  1  0
 21 47  1  0
 22 23  1  0
 22 24  2  0
 23 48  1  0
 24 25  1  0
 24 49  1  0
 25 26  2  0
 25 50  1  0
 26 27  1  0
 27 33  2  0
 27 28  1  0
 28 29  2  0
 28 51  1  0
 29 30  1  0
 29 52  1  0
 30 31  1  0
 30 32  2  0
 31 53  1  0
 32 33  1  0
 32 54  1  0
 34 35  1  0
 36 55  1  0
M  CHG  1  34   1
M  END
>  <DOCK_score>  (1) 
-47.286896

>  <SMILES>  (1) 
Oc1cccc(-c2c[nH]c(N[C@H]3C[C@H]3NC3c4cc(O)ccc4-c4ccc(O)cc43)[nH+]2)c1

$$$$
