CCC=Cc1ccc(-c2c[nH]c(N[C@H](c3ccccc3)c3cccc4ccccc34)[nH+]2)cc1
     RDKit          3D

 61 65  0  0  1  0  0  0  0  0999 V2000
  130.0899  127.5565  149.9810 C   0  0  0  0  0  0  0  0  0  0  0  0
  130.7709  128.9265  149.9585 C   0  0  0  0  0  0  0  0  0  0  0  0
  130.4290  129.6782  151.2189 C   0  0  0  0  0  0  0  0  0  0  0  0
  131.2000  129.5593  152.2921 C   0  0  0  0  0  0  0  0  0  0  0  0
  130.8648  130.2962  153.5276 C   0  0  0  0  0  0  0  0  0  0  0  0
  130.0230  131.4096  153.4703 C   0  0  0  0  0  0  0  0  0  0  0  0
  129.7107  132.0957  154.6224 C   0  0  0  0  0  0  0  0  0  0  0  0
  130.2347  131.6792  155.8465 C   0  0  0  0  0  0  0  0  0  0  0  0
  129.8983  132.4187  157.0863 C   0  0  0  0  0  0  0  0  0  0  0  0
  129.2690  131.9086  158.1747 C   0  0  0  0  0  0  0  0  0  0  0  0
  129.1595  132.9296  159.0867 N   0  0  0  0  0  0  0  0  0  0  0  0
  128.7542  132.8732  159.9661 H   0  0  0  0  0  0  0  0  0  0  0  0
  129.7253  134.0348  158.5293 C   0  0  0  0  0  0  0  0  0  0  0  0
  129.8194  135.2803  159.1260 N   0  0  0  0  0  0  0  0  0  0  0  0
  128.8001  135.7116  160.0858 C   0  0  2  0  0  0  0  0  0  0  0  0
  128.7759  135.0182  160.9264 H   0  0  0  0  0  0  0  0  0  0  0  0
  127.4522  135.7315  159.4121 C   0  0  0  0  0  0  0  0  0  0  0  0
  126.3081  135.4846  160.1477 C   0  0  0  0  0  0  0  0  0  0  0  0
  125.0715  135.5066  159.5305 C   0  0  0  0  0  0  0  0  0  0  0  0
  124.9794  135.7672  158.1760 C   0  0  0  0  0  0  0  0  0  0  0  0
  126.1238  136.0094  157.4395 C   0  0  0  0  0  0  0  0  0  0  0  0
  127.3603  135.9912  158.0574 C   0  0  0  0  0  0  0  0  0  0  0  0
  129.1328  137.0943  160.5846 C   0  0  0  0  0  0  0  0  0  0  0  0
  129.8011  137.9683  159.7831 C   0  0  0  0  0  0  0  0  0  0  0  0
  130.1178  139.2505  160.2270 C   0  0  0  0  0  0  0  0  0  0  0  0
  129.7684  139.6662  161.4753 C   0  0  0  0  0  0  0  0  0  0  0  0
  129.0776  138.7919  162.3313 C   0  0  0  0  0  0  0  0  0  0  0  0
  128.6991  139.1857  163.6263 C   0  0  0  0  0  0  0  0  0  0  0  0
  128.0301  138.3121  164.4271 C   0  0  0  0  0  0  0  0  0  0  0  0
  127.7136  137.0294  163.9830 C   0  0  0  0  0  0  0  0  0  0  0  0
  128.0636  136.6134  162.7355 C   0  0  0  0  0  0  0  0  0  0  0  0
  128.7551  137.4876  161.8794 C   0  0  0  0  0  0  0  0  0  0  0  0
  130.1613  133.7271  157.3322 N   0  0  0  0  0  0  0  0  0  0  0  0
  130.6033  134.3367  156.7206 H   0  0  0  0  0  0  0  0  0  0  0  0
  131.0800  130.5706  155.9034 C   0  0  0  0  0  0  0  0  0  0  0  0
  131.3890  129.8804  154.7530 C   0  0  0  0  0  0  0  0  0  0  0  0
  130.4375  126.9921  150.8463 H   0  0  0  0  0  0  0  0  0  0  0  0
  129.0097  127.6888  150.0435 H   0  0  0  0  0  0  0  0  0  0  0  0
  130.3373  127.0128  149.0693 H   0  0  0  0  0  0  0  0  0  0  0  0
  130.4233  129.4908  149.0932 H   0  0  0  0  0  0  0  0  0  0  0  0
  131.8511  128.7942  149.8960 H   0  0  0  0  0  0  0  0  0  0  0  0
  129.5560  130.3137  151.2487 H   0  0  0  0  0  0  0  0  0  0  0  0
  132.0727  128.9241  152.2621 H   0  0  0  0  0  0  0  0  0  0  0  0
  129.6174  131.7323  152.5228 H   0  0  0  0  0  0  0  0  0  0  0  0
  129.0595  132.9561  154.5786 H   0  0  0  0  0  0  0  0  0  0  0  0
  128.9207  130.8940  158.2999 H   0  0  0  0  0  0  0  0  0  0  0  0
  130.5603  135.8676  158.9088 H   0  0  0  0  0  0  0  0  0  0  0  0
  126.3803  135.2773  161.2052 H   0  0  0  0  0  0  0  0  0  0  0  0
  124.1773  135.3168  160.1058 H   0  0  0  0  0  0  0  0  0  0  0  0
  124.0136  135.7809  157.6931 H   0  0  0  0  0  0  0  0  0  0  0  0
  126.0521  136.2126  156.3811 H   0  0  0  0  0  0  0  0  0  0  0  0
  128.2544  136.1800  157.4819 H   0  0  0  0  0  0  0  0  0  0  0  0
  130.0900  137.6635  158.7881 H   0  0  0  0  0  0  0  0  0  0  0  0
  130.6486  139.9245  159.5710 H   0  0  0  0  0  0  0  0  0  0  0  0
  130.0247  140.6614  161.8076 H   0  0  0  0  0  0  0  0  0  0  0  0
  128.9382  140.1763  163.9840 H   0  0  0  0  0  0  0  0  0  0  0  0
  127.7404  138.6172  165.4217 H   0  0  0  0  0  0  0  0  0  0  0  0
  127.1823  136.3555  164.6389 H   0  0  0  0  0  0  0  0  0  0  0  0
  127.8110  135.6169  162.4048 H   0  0  0  0  0  0  0  0  0  0  0  0
  131.4889  130.2515  156.8508 H   0  0  0  0  0  0  0  0  0  0  0  0
  132.0402  129.0199  154.7978 H   0  0  0  0  0  0  0  0  0  0  0  0
  1  2  1  0
  1 37  1  0
  1 38  1  0
  1 39  1  0
  2  3  1  0
  2 40  1  0
  2 41  1  0
  3  4  2  0
  3 42  1  0
  4  5  1  0
  4 43  1  0
  5 36  2  0
  5  6  1  0
  6  7  2  0
  6 44  1  0
  7  8  1  0
  7 45  1  0
  8  9  1  0
  8 35  2  0
  9 33  1  0
  9 10  2  0
 10 11  1  0
 10 46  1  0
 11 12  1  0
 11 13  1  0
 13 14  1  0
 13 33  2  0
 14 15  1  0
 14 47  1  0
 15 16  1  1
 15 17  1  0
 15 23  1  0
 17 22  1  0
 17 18  2  0
 18 19  1  0
 18 48  1  0
 19 20  2  0
 19 49  1  0
 20 21  1  0
 20 50  1  0
 21 22  2  0
 21 51  1  0
 22 52  1  0
 23 32  1  0
 23 24  2  0
 24 25  1  0
 24 53  1  0
 25 26  2  0
 25 54  1  0
 26 27  1  0
 26 55  1  0
 27 32  2  0
 27 28  1  0
 28 29  2  0
 28 56  1  0
 29 30  1  0
 29 57  1  0
 30 31  2  0
 30 58  1  0
 31 32  1  0
 31 59  1  0
 33 34  1  0
 35 36  1  0
 35 60  1  0
 36 61  1  0
M  CHG  1  33   1
M  END
>  <DOCK_score>  (1) 
-61.274284

>  <SMILES>  (1) 
CCC=Cc1ccc(-c2c[nH]c(N[C@H](c3ccccc3)c3cccc4ccccc34)[nH+]2)cc1

$$$$
