CCc1ccc(-c2c[nH]c(N[C@@H](Cc3ccc(C4=CCCCC4)cc3)C(C)C)[nH+]2)cc1
     RDKit          3D

 67 70  0  0  1  0  0  0  0  0999 V2000
  130.0668  129.1660  151.9071 C   0  0  0  0  0  0  0  0  0  0  0  0
  131.2874  129.9867  152.3306 C   0  0  0  0  0  0  0  0  0  0  0  0
  131.0137  130.6443  153.6588 C   0  0  0  0  0  0  0  0  0  0  0  0
  131.3366  129.9872  154.8320 C   0  0  0  0  0  0  0  0  0  0  0  0
  131.0883  130.5842  156.0513 C   0  0  0  0  0  0  0  0  0  0  0  0
  130.5109  131.8519  156.0988 C   0  0  0  0  0  0  0  0  0  0  0  0
  130.2416  132.4987  157.4062 C   0  0  0  0  0  0  0  0  0  0  0  0
  129.4340  132.0174  158.3833 C   0  0  0  0  0  0  0  0  0  0  0  0
  129.4712  132.9245  159.4142 N   0  0  0  0  0  0  0  0  0  0  0  0
  128.9943  132.8573  160.2562 H   0  0  0  0  0  0  0  0  0  0  0  0
  130.3013  133.9347  159.0364 C   0  0  0  0  0  0  0  0  0  0  0  0
  130.6099  135.0510  159.7947 N   0  0  0  0  0  0  0  0  0  0  0  0
  130.0240  135.2163  161.1273 C   0  0  1  0  0  0  0  0  0  0  0  0
  130.3180  134.3788  161.7598 H   0  0  0  0  0  0  0  0  0  0  0  0
  130.5246  136.5229  161.7460 C   0  0  0  0  0  0  0  0  0  0  0  0
  131.9074  136.3154  162.3081 C   0  0  0  0  0  0  0  0  0  0  0  0
  133.0155  136.5374  161.5103 C   0  0  0  0  0  0  0  0  0  0  0  0
  134.2842  136.3490  162.0188 C   0  0  0  0  0  0  0  0  0  0  0  0
  134.4482  135.9333  163.3407 C   0  0  0  0  0  0  0  0  0  0  0  0
  135.8044  135.7288  163.8917 C   0  0  0  0  0  0  0  0  0  0  0  0
  135.9850  135.9258  165.1751 C   0  0  0  0  0  0  0  0  0  0  0  0
  137.3067  135.7646  165.8678 C   0  0  0  0  0  0  0  0  0  0  0  0
  138.2648  134.9538  164.9927 C   0  0  0  0  0  0  0  0  0  0  0  0
  138.2642  135.5571  163.5826 C   0  0  0  0  0  0  0  0  0  0  0  0
  136.8924  135.3020  162.9500 C   0  0  0  0  0  0  0  0  0  0  0  0
  133.3263  135.7117  164.1402 C   0  0  0  0  0  0  0  0  0  0  0  0
  132.0630  135.9040  163.6197 C   0  0  0  0  0  0  0  0  0  0  0  0
  128.4989  135.2578  161.0123 C   0  0  0  0  0  0  0  0  0  0  0  0
  127.8758  134.9306  162.3708 C   0  0  0  0  0  0  0  0  0  0  0  0
  128.0585  136.6554  160.5724 C   0  0  0  0  0  0  0  0  0  0  0  0
  130.7559  133.6791  157.8340 N   0  0  0  0  0  0  0  0  0  0  0  0
  131.3643  134.2428  157.3310 H   0  0  0  0  0  0  0  0  0  0  0  0
  130.1824  132.5070  154.9133 C   0  0  0  0  0  0  0  0  0  0  0  0
  130.4406  131.9029  153.6997 C   0  0  0  0  0  0  0  0  0  0  0  0
  129.8660  128.4007  152.6568 H   0  0  0  0  0  0  0  0  0  0  0  0
  129.2010  129.8220  151.8165 H   0  0  0  0  0  0  0  0  0  0  0  0
  130.2643  128.6906  150.9464 H   0  0  0  0  0  0  0  0  0  0  0  0
  131.4874  130.7523  151.5806 H   0  0  0  0  0  0  0  0  0  0  0  0
  132.1524  129.3311  152.4209 H   0  0  0  0  0  0  0  0  0  0  0  0
  131.7839  129.0049  154.7941 H   0  0  0  0  0  0  0  0  0  0  0  0
  131.3412  130.0702  156.9669 H   0  0  0  0  0  0  0  0  0  0  0  0
  128.8691  131.0973  158.3562 H   0  0  0  0  0  0  0  0  0  0  0  0
  131.2142  135.7238  159.4437 H   0  0  0  0  0  0  0  0  0  0  0  0
  129.8495  136.8285  162.5454 H   0  0  0  0  0  0  0  0  0  0  0  0
  130.5561  137.2987  160.9809 H   0  0  0  0  0  0  0  0  0  0  0  0
  132.8872  136.8545  160.4858 H   0  0  0  0  0  0  0  0  0  0  0  0
  135.1487  136.5224  161.3949 H   0  0  0  0  0  0  0  0  0  0  0  0
  135.1326  136.2211  165.7690 H   0  0  0  0  0  0  0  0  0  0  0  0
  137.7365  136.7478  166.0593 H   0  0  0  0  0  0  0  0  0  0  0  0
  137.1573  135.2471  166.8154 H   0  0  0  0  0  0  0  0  0  0  0  0
  139.2705  135.0001  165.4104 H   0  0  0  0  0  0  0  0  0  0  0  0
  137.9332  133.9163  164.9505 H   0  0  0  0  0  0  0  0  0  0  0  0
  138.4506  136.6294  163.6429 H   0  0  0  0  0  0  0  0  0  0  0  0
  139.0404  135.0837  162.9813 H   0  0  0  0  0  0  0  0  0  0  0  0
  136.7839  134.2400  162.7299 H   0  0  0  0  0  0  0  0  0  0  0  0
  136.8123  135.8710  162.0238 H   0  0  0  0  0  0  0  0  0  0  0  0
  133.4465  135.3904  165.1642 H   0  0  0  0  0  0  0  0  0  0  0  0
  131.1938  135.7327  164.2375 H   0  0  0  0  0  0  0  0  0  0  0  0
  128.1700  134.5246  160.2757 H   0  0  0  0  0  0  0  0  0  0  0  0
  128.2049  135.6638  163.1072 H   0  0  0  0  0  0  0  0  0  0  0  0
  126.7894  134.9601  162.2888 H   0  0  0  0  0  0  0  0  0  0  0  0
  128.1896  133.9349  162.6841 H   0  0  0  0  0  0  0  0  0  0  0  0
  128.5024  136.8885  159.6046 H   0  0  0  0  0  0  0  0  0  0  0  0
  126.9719  136.6850  160.4905 H   0  0  0  0  0  0  0  0  0  0  0  0
  128.3873  137.3886  161.3090 H   0  0  0  0  0  0  0  0  0  0  0  0
  129.7304  133.4874  154.9442 H   0  0  0  0  0  0  0  0  0  0  0  0
  130.1904  132.4115  152.7803 H   0  0  0  0  0  0  0  0  0  0  0  0
  1  2  1  0
  1 35  1  0
  1 36  1  0
  1 37  1  0
  2  3  1  0
  2 38  1  0
  2 39  1  0
  3 34  2  0
  3  4  1  0
  4  5  2  0
  4 40  1  0
  5  6  1  0
  5 41  1  0
  6  7  1  0
  6 33  2  0
  7 31  1  0
  7  8  2  0
  8  9  1  0
  8 42  1  0
  9 10  1  0
  9 11  1  0
 11 12  1  0
 11 31  2  0
 12 13  1  0
 12 43  1  0
 13 14  1  1
 13 15  1  0
 13 28  1  0
 15 16  1  0
 15 44  1  0
 15 45  1  0
 16 27  1  0
 16 17  2  0
 17 18  1  0
 17 46  1  0
 18 19  2  0
 18 47  1  0
 19 20  1  0
 19 26  1  0
 20 25  1  0
 20 21  2  0
 21 22  1  0
 21 48  1  0
 22 23  1  0
 22 49  1  0
 22 50  1  0
 23 24  1  0
 23 51  1  0
 23 52  1  0
 24 25  1  0
 24 53  1  0
 24 54  1  0
 25 55  1  0
 25 56  1  0
 26 27  2  0
 26 57  1  0
 27 58  1  0
 28 29  1  0
 28 30  1  0
 28 59  1  0
 29 60  1  0
 29 61  1  0
 29 62  1  0
 30 63  1  0
 30 64  1  0
 30 65  1  0
 31 32  1  0
 33 34  1  0
 33 66  1  0
 34 67  1  0
M  CHG  1  31   1
M  END
>  <DOCK_score>  (1) 
-57.437775

>  <SMILES>  (1) 
CCc1ccc(-c2c[nH]c(N[C@@H](Cc3ccc(C4=CCCCC4)cc3)C(C)C)[nH+]2)cc1

$$$$
