CCc1ccc(-c2c[nH]c(N[C@@H](C=CCc3ccc(CC=O)cc3)c3ccc(F)c(F)c3)[nH+]2)cc1
     RDKit          3D

 63 66  0  0  1  0  0  0  0  0999 V2000
  130.0602  128.4142  151.6492 C   0  0  0  0  0  0  0  0  0  0  0  0
  131.0898  129.5366  151.7942 C   0  0  0  0  0  0  0  0  0  0  0  0
  130.8536  130.2713  153.0887 C   0  0  0  0  0  0  0  0  0  0  0  0
  131.4888  129.8520  154.2443 C   0  0  0  0  0  0  0  0  0  0  0  0
  131.2759  130.5203  155.4328 C   0  0  0  0  0  0  0  0  0  0  0  0
  130.4194  131.6193  155.4675 C   0  0  0  0  0  0  0  0  0  0  0  0
  130.1866  132.3417  156.7420 C   0  0  0  0  0  0  0  0  0  0  0  0
  129.6728  131.8097  157.8786 C   0  0  0  0  0  0  0  0  0  0  0  0
  129.6238  132.8219  158.8059 N   0  0  0  0  0  0  0  0  0  0  0  0
  129.2995  132.7510  159.7173 H   0  0  0  0  0  0  0  0  0  0  0  0
  130.1142  133.9428  158.2099 C   0  0  0  0  0  0  0  0  0  0  0  0
  130.2360  135.1860  158.8067 N   0  0  0  0  0  0  0  0  0  0  0  0
  129.8180  135.3746  160.1981 C   0  0  1  0  0  0  0  0  0  0  0  0
  130.3968  134.7146  160.8441 H   0  0  0  0  0  0  0  0  0  0  0  0
  130.0531  136.8070  160.6033 C   0  0  0  0  0  0  0  0  0  0  0  0
  131.1998  137.1589  161.1300 C   0  0  0  0  0  0  0  0  0  0  0  0
  131.4349  138.5912  161.5354 C   0  0  0  0  0  0  0  0  0  0  0  0
  131.7271  138.6537  163.0124 C   0  0  0  0  0  0  0  0  0  0  0  0
  133.0298  138.5545  163.4641 C   0  0  0  0  0  0  0  0  0  0  0  0
  133.2984  138.6167  164.8186 C   0  0  0  0  0  0  0  0  0  0  0  0
  132.2633  138.7682  165.7222 C   0  0  0  0  0  0  0  0  0  0  0  0
  132.5555  138.8310  167.1992 C   0  0  0  0  0  0  0  0  0  0  0  0
  132.5218  137.4398  167.7775 C   0  0  0  0  0  0  0  0  0  0  0  0
  131.7354  137.1687  168.6530 O   0  0  0  0  0  0  0  0  0  0  0  0
  130.9600  138.8619  165.2709 C   0  0  0  0  0  0  0  0  0  0  0  0
  130.6919  138.8048  163.9161 C   0  0  0  0  0  0  0  0  0  0  0  0
  128.3526  135.0491  160.3308 C   0  0  0  0  0  0  0  0  0  0  0  0
  127.8613  134.5501  161.5230 C   0  0  0  0  0  0  0  0  0  0  0  0
  126.5177  134.2508  161.6472 C   0  0  0  0  0  0  0  0  0  0  0  0
  125.6625  134.4505  160.5773 C   0  0  0  0  0  0  0  0  0  0  0  0
  124.3489  134.1586  160.6982 F   0  0  0  0  0  0  0  0  0  0  0  0
  126.1550  134.9509  159.3819 C   0  0  0  0  0  0  0  0  0  0  0  0
  125.3222  135.1464  158.3363 F   0  0  0  0  0  0  0  0  0  0  0  0
  127.5001  135.2548  159.2625 C   0  0  0  0  0  0  0  0  0  0  0  0
  130.4524  133.6512  156.9776 N   0  0  0  0  0  0  0  0  0  0  0  0
  130.8285  134.2732  156.3353 H   0  0  0  0  0  0  0  0  0  0  0  0
  129.7782  132.0334  154.3015 C   0  0  0  0  0  0  0  0  0  0  0  0
  130.0030  131.3612  153.1174 C   0  0  0  0  0  0  0  0  0  0  0  0
  130.2311  127.8831  150.7128 H   0  0  0  0  0  0  0  0  0  0  0  0
  130.1596  127.7202  152.4838 H   0  0  0  0  0  0  0  0  0  0  0  0
  129.0568  128.8397  151.6478 H   0  0  0  0  0  0  0  0  0  0  0  0
  130.9907  130.2307  150.9597 H   0  0  0  0  0  0  0  0  0  0  0  0
  132.0934  129.1112  151.7956 H   0  0  0  0  0  0  0  0  0  0  0  0
  132.1523  129.0002  154.2162 H   0  0  0  0  0  0  0  0  0  0  0  0
  131.7723  130.1925  156.3343 H   0  0  0  0  0  0  0  0  0  0  0  0
  129.3586  130.7868  158.0254 H   0  0  0  0  0  0  0  0  0  0  0  0
  130.5980  135.9321  158.3036 H   0  0  0  0  0  0  0  0  0  0  0  0
  129.2762  137.5434  160.4597 H   0  0  0  0  0  0  0  0  0  0  0  0
  131.9766  136.4225  161.2738 H   0  0  0  0  0  0  0  0  0  0  0  0
  132.2830  138.9914  160.9800 H   0  0  0  0  0  0  0  0  0  0  0  0
  130.5454  139.1817  161.3156 H   0  0  0  0  0  0  0  0  0  0  0  0
  133.8381  138.4320  162.7584 H   0  0  0  0  0  0  0  0  0  0  0  0
  134.3166  138.5433  165.1713 H   0  0  0  0  0  0  0  0  0  0  0  0
  133.5426  139.2658  167.3562 H   0  0  0  0  0  0  0  0  0  0  0  0
  131.8041  139.4477  167.6925 H   0  0  0  0  0  0  0  0  0  0  0  0
  133.2008  136.6851  167.4089 H   0  0  0  0  0  0  0  0  0  0  0  0
  130.1512  138.9799  165.9769 H   0  0  0  0  0  0  0  0  0  0  0  0
  129.6738  138.8779  163.5635 H   0  0  0  0  0  0  0  0  0  0  0  0
  128.5282  134.3939  162.3579 H   0  0  0  0  0  0  0  0  0  0  0  0
  126.1352  133.8609  162.5789 H   0  0  0  0  0  0  0  0  0  0  0  0
  127.8842  135.6492  158.3334 H   0  0  0  0  0  0  0  0  0  0  0  0
  129.1098  132.8816  154.3236 H   0  0  0  0  0  0  0  0  0  0  0  0
  129.5101  131.6841  152.2122 H   0  0  0  0  0  0  0  0  0  0  0  0
  1  2  1  0
  1 39  1  0
  1 40  1  0
  1 41  1  0
  2  3  1  0
  2 42  1  0
  2 43  1  0
  3 38  2  0
  3  4  1  0
  4  5  2  0
  4 44  1  0
  5  6  1  0
  5 45  1  0
  6  7  1  0
  6 37  2  0
  7 35  1  0
  7  8  2  0
  8  9  1  0
  8 46  1  0
  9 10  1  0
  9 11  1  0
 11 12  1  0
 11 35  2  0
 12 13  1  0
 12 47  1  0
 13 14  1  1
 13 15  1  0
 13 27  1  0
 15 16  2  0
 15 48  1  0
 16 17  1  0
 16 49  1  0
 17 18  1  0
 17 50  1  0
 17 51  1  0
 18 26  1  0
 18 19  2  0
 19 20  1  0
 19 52  1  0
 20 21  2  0
 20 53  1  0
 21 22  1  0
 21 25  1  0
 22 23  1  0
 22 54  1  0
 22 55  1  0
 23 24  2  0
 23 56  1  0
 25 26  2  0
 25 57  1  0
 26 58  1  0
 27 34  1  0
 27 28  2  0
 28 29  1  0
 28 59  1  0
 29 30  2  0
 29 60  1  0
 30 31  1  0
 30 32  1  0
 32 33  1  0
 32 34  2  0
 34 61  1  0
 35 36  1  0
 37 38  1  0
 37 62  1  0
 38 63  1  0
M  CHG  1  35   1
M  END
>  <DOCK_score>  (1) 
-56.372295

>  <SMILES>  (1) 
CCc1ccc(-c2c[nH]c(N[C@@H](C=CCc3ccc(CC=O)cc3)c3ccc(F)c(F)c3)[nH+]2)cc1

$$$$
