Cc1cc(N2CC=CCC2)ccc1[C@H](C)[NH2+][C@@H](C)c1cnn(-c2ccccc2)c1
     RDKit          3D

 60 63  0  0  1  0  0  0  0  0999 V2000
  131.5358  138.6324  162.5139 C   0  0  0  0  0  0  0  0  0  0  0  0
  132.6404  138.7941  161.5015 C   0  0  0  0  0  0  0  0  0  0  0  0
  133.3878  139.9553  161.4756 C   0  0  0  0  0  0  0  0  0  0  0  0
  134.4053  140.1038  160.5419 C   0  0  0  0  0  0  0  0  0  0  0  0
  135.1628  141.2769  160.5126 N   0  0  0  0  0  0  0  0  0  0  0  0
  136.1317  141.2502  159.4095 C   0  0  0  0  0  0  0  0  0  0  0  0
  137.2444  140.2904  159.7172 C   0  0  0  0  0  0  0  0  0  0  0  0
  137.4903  139.8439  160.9111 C   0  0  0  0  0  0  0  0  0  0  0  0
  136.6788  140.2379  162.1133 C   0  0  0  0  0  0  0  0  0  0  0  0
  135.8567  141.4891  161.7939 C   0  0  0  0  0  0  0  0  0  0  0  0
  134.6677  139.0828  159.6368 C   0  0  0  0  0  0  0  0  0  0  0  0
  133.9203  137.9222  159.6720 C   0  0  0  0  0  0  0  0  0  0  0  0
  132.9042  137.7802  160.5994 C   0  0  0  0  0  0  0  0  0  0  0  0
  132.0865  136.5146  160.6306 C   0  0  2  0  0  0  0  0  0  0  0  0
  131.7495  136.3248  161.6496 H   0  0  0  0  0  0  0  0  0  0  0  0
  132.9436  135.3417  160.1502 C   0  0  0  0  0  0  0  0  0  0  0  0
  130.9209  136.6627  159.7489 N   0  0  0  0  0  0  0  0  0  0  0  0
  131.2015  136.5097  158.7919 H   0  0  0  0  0  0  0  0  0  0  0  0
  130.5435  137.5936  159.8439 H   0  0  0  0  0  0  0  0  0  0  0  0
  129.8963  135.6785  160.1221 C   0  0  1  0  0  0  0  0  0  0  0  0
  129.8474  135.5989  161.2081 H   0  0  0  0  0  0  0  0  0  0  0  0
  128.5371  136.1274  159.5819 C   0  0  0  0  0  0  0  0  0  0  0  0
  130.2514  134.3365  159.5356 C   0  0  0  0  0  0  0  0  0  0  0  0
  130.4859  133.1597  160.2554 C   0  0  0  0  0  0  0  0  0  0  0  0
  130.7652  132.2068  159.4030 N   0  0  0  0  0  0  0  0  0  0  0  0
  130.7175  132.7469  158.1112 N   0  0  0  0  0  0  0  0  0  0  0  0
  130.9573  132.0524  156.9173 C   0  0  0  0  0  0  0  0  0  0  0  0
  130.8767  132.7141  155.6994 C   0  0  0  0  0  0  0  0  0  0  0  0
  131.1139  132.0272  154.5249 C   0  0  0  0  0  0  0  0  0  0  0  0
  131.4320  130.6820  154.5612 C   0  0  0  0  0  0  0  0  0  0  0  0
  131.5129  130.0202  155.7726 C   0  0  0  0  0  0  0  0  0  0  0  0
  131.2764  130.7016  156.9505 C   0  0  0  0  0  0  0  0  0  0  0  0
  130.4051  134.0580  158.2203 C   0  0  0  0  0  0  0  0  0  0  0  0
  131.9370  138.1781  163.4198 H   0  0  0  0  0  0  0  0  0  0  0  0
  131.1159  139.6094  162.7526 H   0  0  0  0  0  0  0  0  0  0  0  0
  130.7557  137.9925  162.1014 H   0  0  0  0  0  0  0  0  0  0  0  0
  133.1815  140.7469  162.1808 H   0  0  0  0  0  0  0  0  0  0  0  0
  135.6283  140.9384  158.4944 H   0  0  0  0  0  0  0  0  0  0  0  0
  136.5455  142.2488  159.2684 H   0  0  0  0  0  0  0  0  0  0  0  0
  137.8714  139.9544  158.9045 H   0  0  0  0  0  0  0  0  0  0  0  0
  138.3147  139.1594  161.0465 H   0  0  0  0  0  0  0  0  0  0  0  0
  137.3466  140.4465  162.9491 H   0  0  0  0  0  0  0  0  0  0  0  0
  136.0078  139.4217  162.3811 H   0  0  0  0  0  0  0  0  0  0  0  0
  136.5183  142.3516  161.7137 H   0  0  0  0  0  0  0  0  0  0  0  0
  135.1245  141.6613  162.5827 H   0  0  0  0  0  0  0  0  0  0  0  0
  135.4582  139.1950  158.9095 H   0  0  0  0  0  0  0  0  0  0  0  0
  134.1269  137.1263  158.9718 H   0  0  0  0  0  0  0  0  0  0  0  0
  132.3521  134.4263  160.1728 H   0  0  0  0  0  0  0  0  0  0  0  0
  133.2806  135.5314  159.1311 H   0  0  0  0  0  0  0  0  0  0  0  0
  133.8083  135.2317  160.8044 H   0  0  0  0  0  0  0  0  0  0  0  0
  128.2801  137.0981  160.0061 H   0  0  0  0  0  0  0  0  0  0  0  0
  128.5860  136.2071  158.4958 H   0  0  0  0  0  0  0  0  0  0  0  0
  127.7768  135.3972  159.8589 H   0  0  0  0  0  0  0  0  0  0  0  0
  130.4441  133.0558  161.3296 H   0  0  0  0  0  0  0  0  0  0  0  0
  130.6290  133.7648  155.6706 H   0  0  0  0  0  0  0  0  0  0  0  0
  131.0514  132.5414  153.5772 H   0  0  0  0  0  0  0  0  0  0  0  0
  131.6131  130.1461  153.6412 H   0  0  0  0  0  0  0  0  0  0  0  0
  131.7615  128.9696  155.7979 H   0  0  0  0  0  0  0  0  0  0  0  0
  131.3398  130.1842  157.8964 H   0  0  0  0  0  0  0  0  0  0  0  0
  130.2957  134.7568  157.4042 H   0  0  0  0  0  0  0  0  0  0  0  0
  1  2  1  0
  1 34  1  0
  1 35  1  0
  1 36  1  0
  2 13  2  0
  2  3  1  0
  3  4  2  0
  3 37  1  0
  4  5  1  0
  4 11  1  0
  5 10  1  0
  5  6  1  0
  6  7  1  0
  6 38  1  0
  6 39  1  0
  7  8  2  0
  7 40  1  0
  8  9  1  0
  8 41  1  0
  9 10  1  0
  9 42  1  0
  9 43  1  0
 10 44  1  0
 10 45  1  0
 11 12  2  0
 11 46  1  0
 12 13  1  0
 12 47  1  0
 13 14  1  0
 14 15  1  1
 14 16  1  0
 14 17  1  0
 16 48  1  0
 16 49  1  0
 16 50  1  0
 17 18  1  0
 17 19  1  0
 17 20  1  0
 20 21  1  1
 20 22  1  0
 20 23  1  0
 22 51  1  0
 22 52  1  0
 22 53  1  0
 23 33  2  0
 23 24  1  0
 24 25  2  0
 24 54  1  0
 25 26  1  0
 26 27  1  0
 26 33  1  0
 27 32  1  0
 27 28  2  0
 28 29  1  0
 28 55  1  0
 29 30  2  0
 29 56  1  0
 30 31  1  0
 30 57  1  0
 31 32  2  0
 31 58  1  0
 32 59  1  0
 33 60  1  0
M  CHG  1  17   1
M  END
>  <DOCK_score>  (1) 
-57.38517

>  <SMILES>  (1) 
Cc1cc(N2CC=CCC2)ccc1[C@H](C)[NH2+][C@@H](C)c1cnn(-c2ccccc2)c1

$$$$
