CC(C)Oc1ccccc1C[C@@H]([NH3+])C(=O)Nc1cccc(O)c1
     RDKit          3D

 46 47  0  0  1  0  0  0  0  0999 V2000
  131.1132  137.2221  161.2470 C   0  0  0  0  0  0  0  0  0  0  0  0
  132.5274  136.6380  161.2377 C   0  0  0  0  0  0  0  0  0  0  0  0
  133.4411  137.5276  160.3924 C   0  0  0  0  0  0  0  0  0  0  0  0
  132.4956  135.3223  160.6809 O   0  0  0  0  0  0  0  0  0  0  0  0
  131.7244  134.4017  161.3171 C   0  0  0  0  0  0  0  0  0  0  0  0
  131.5235  134.4906  162.6870 C   0  0  0  0  0  0  0  0  0  0  0  0
  130.7393  133.5537  163.3312 C   0  0  0  0  0  0  0  0  0  0  0  0
  130.1549  132.5274  162.6119 C   0  0  0  0  0  0  0  0  0  0  0  0
  130.3538  132.4362  161.2469 C   0  0  0  0  0  0  0  0  0  0  0  0
  131.1320  133.3747  160.5968 C   0  0  0  0  0  0  0  0  0  0  0  0
  131.3431  133.2786  159.1078 C   0  0  0  0  0  0  0  0  0  0  0  0
  130.2509  134.0702  158.3857 C   0  0  1  0  0  0  0  0  0  0  0  0
  130.2964  135.1152  158.6924 H   0  0  0  0  0  0  0  0  0  0  0  0
  130.4567  133.9766  156.9342 N   0  0  0  0  0  0  0  0  0  0  0  0
  129.7364  134.4986  156.4580 H   0  0  0  0  0  0  0  0  0  0  0  0
  131.3606  134.3576  156.6973 H   0  0  0  0  0  0  0  0  0  0  0  0
  130.4146  133.0092  156.6503 H   0  0  0  0  0  0  0  0  0  0  0  0
  128.9010  133.5012  158.7393 C   0  0  0  0  0  0  0  0  0  0  0  0
  128.4210  132.6145  158.0650 O   0  0  0  0  0  0  0  0  0  0  0  0
  128.2270  133.9776  159.8048 N   0  0  0  0  0  0  0  0  0  0  0  0
  126.9736  133.4494  160.1331 C   0  0  0  0  0  0  0  0  0  0  0  0
  126.6760  132.1261  159.8323 C   0  0  0  0  0  0  0  0  0  0  0  0
  125.4409  131.6030  160.1619 C   0  0  0  0  0  0  0  0  0  0  0  0
  124.4939  132.3972  160.7803 C   0  0  0  0  0  0  0  0  0  0  0  0
  124.7835  133.7214  161.0779 C   0  0  0  0  0  0  0  0  0  0  0  0
  123.8514  134.5012  161.6860 O   0  0  0  0  0  0  0  0  0  0  0  0
  126.0242  134.2482  160.7542 C   0  0  0  0  0  0  0  0  0  0  0  0
  130.4623  136.5884  161.8491 H   0  0  0  0  0  0  0  0  0  0  0  0
  130.7326  137.2684  160.2266 H   0  0  0  0  0  0  0  0  0  0  0  0
  131.1374  138.2256  161.6716 H   0  0  0  0  0  0  0  0  0  0  0  0
  132.9081  136.5917  162.2581 H   0  0  0  0  0  0  0  0  0  0  0  0
  133.4652  138.5312  160.8170 H   0  0  0  0  0  0  0  0  0  0  0  0
  134.4485  137.1114  160.3859 H   0  0  0  0  0  0  0  0  0  0  0  0
  133.0605  137.5739  159.3720 H   0  0  0  0  0  0  0  0  0  0  0  0
  131.9802  135.2917  163.2494 H   0  0  0  0  0  0  0  0  0  0  0  0
  130.5826  133.6225  164.3975 H   0  0  0  0  0  0  0  0  0  0  0  0
  129.5424  131.7955  163.1174 H   0  0  0  0  0  0  0  0  0  0  0  0
  129.8967  131.6335  160.6874 H   0  0  0  0  0  0  0  0  0  0  0  0
  132.3194  133.6901  158.8519 H   0  0  0  0  0  0  0  0  0  0  0  0
  131.2974  132.2336  158.8011 H   0  0  0  0  0  0  0  0  0  0  0  0
  128.6108  134.6867  160.3441 H   0  0  0  0  0  0  0  0  0  0  0  0
  127.4126  131.5046  159.3448 H   0  0  0  0  0  0  0  0  0  0  0  0
  125.2131  130.5727  159.9317 H   0  0  0  0  0  0  0  0  0  0  0  0
  123.5272  131.9869  161.0325 H   0  0  0  0  0  0  0  0  0  0  0  0
  124.1447  135.4075  161.8524 H   0  0  0  0  0  0  0  0  0  0  0  0
  126.2515  135.2784  160.9855 H   0  0  0  0  0  0  0  0  0  0  0  0
  1  2  1  0
  1 28  1  0
  1 29  1  0
  1 30  1  0
  2  3  1  0
  2  4  1  0
  2 31  1  0
  3 32  1  0
  3 33  1  0
  3 34  1  0
  4  5  1  0
  5 10  2  0
  5  6  1  0
  6  7  2  0
  6 35  1  0
  7  8  1  0
  7 36  1  0
  8  9  2  0
  8 37  1  0
  9 10  1  0
  9 38  1  0
 10 11  1  0
 11 12  1  0
 11 39  1  0
 11 40  1  0
 12 13  1  1
 12 14  1  0
 12 18  1  0
 14 15  1  0
 14 16  1  0
 14 17  1  0
 18 19  2  0
 18 20  1  0
 20 21  1  0
 20 41  1  0
 21 27  1  0
 21 22  2  0
 22 23  1  0
 22 42  1  0
 23 24  2  0
 23 43  1  0
 24 25  1  0
 24 44  1  0
 25 26  1  0
 25 27  2  0
 26 45  1  0
 27 46  1  0
M  CHG  1  14   1
M  END
>  <DOCK_score>  (1) 
-45.779888

>  <SMILES>  (1) 
CC(C)Oc1ccccc1C[C@@H]([NH3+])C(=O)Nc1cccc(O)c1

$$$$
