Nc1ccc(-c2c[nH]c(Nc3cc(SC[C@@H]4C=CCCC4)ccc3NC3CCC3)[nH+]2)cc1
     RDKit          3D

 64 68  0  0  1  0  0  0  0  0999 V2000
  130.8544  129.8770  152.1885 N   0  0  0  0  0  0  0  0  0  0  0  0
  130.7884  130.4864  153.4438 C   0  0  0  0  0  0  0  0  0  0  0  0
  130.3045  131.7841  153.5607 C   0  0  0  0  0  0  0  0  0  0  0  0
  130.2381  132.3874  154.7988 C   0  0  0  0  0  0  0  0  0  0  0  0
  130.6570  131.6949  155.9337 C   0  0  0  0  0  0  0  0  0  0  0  0
  130.5871  132.3422  157.2668 C   0  0  0  0  0  0  0  0  0  0  0  0
  130.3982  131.7103  158.4518 C   0  0  0  0  0  0  0  0  0  0  0  0
  130.4053  132.6797  159.4261 N   0  0  0  0  0  0  0  0  0  0  0  0
  130.2962  132.5372  160.3794 H   0  0  0  0  0  0  0  0  0  0  0  0
  130.5905  133.8771  158.8057 C   0  0  0  0  0  0  0  0  0  0  0  0
  130.6566  135.1094  159.4341 N   0  0  0  0  0  0  0  0  0  0  0  0
  130.5286  135.1935  160.8261 C   0  0  0  0  0  0  0  0  0  0  0  0
  131.5609  135.7190  161.5881 C   0  0  0  0  0  0  0  0  0  0  0  0
  131.4283  135.8069  162.9675 C   0  0  0  0  0  0  0  0  0  0  0  0
  132.7364  136.4812  163.9366 S   0  0  0  0  0  0  0  0  0  0  0  0
  133.9910  136.8985  162.6946 C   0  0  0  0  0  0  0  0  0  0  0  0
  135.2125  137.5057  163.3876 C   0  0  2  0  0  0  0  0  0  0  0  0
  134.8817  138.1703  164.1858 H   0  0  0  0  0  0  0  0  0  0  0  0
  136.0116  138.2910  162.3892 C   0  0  0  0  0  0  0  0  0  0  0  0
  137.3033  138.2626  162.3106 C   0  0  0  0  0  0  0  0  0  0  0  0
  138.1817  137.4325  163.2002 C   0  0  0  0  0  0  0  0  0  0  0  0
  137.4036  136.9842  164.4393 C   0  0  0  0  0  0  0  0  0  0  0  0
  136.0677  136.3849  163.9826 C   0  0  0  0  0  0  0  0  0  0  0  0
  130.2652  135.3631  163.5841 C   0  0  0  0  0  0  0  0  0  0  0  0
  129.2376  134.8332  162.8266 C   0  0  0  0  0  0  0  0  0  0  0  0
  129.3647  134.7437  161.4490 C   0  0  0  0  0  0  0  0  0  0  0  0
  128.3208  134.2060  160.6815 N   0  0  0  0  0  0  0  0  0  0  0  0
  127.4438  133.1813  161.2532 C   0  0  0  0  0  0  0  0  0  0  0  0
  126.4703  132.5651  160.2343 C   0  0  0  0  0  0  0  0  0  0  0  0
  125.4088  132.5983  161.3465 C   0  0  0  0  0  0  0  0  0  0  0  0
  126.2089  133.7557  161.9673 C   0  0  0  0  0  0  0  0  0  0  0  0
  130.7017  133.6704  157.5159 N   0  0  0  0  0  0  0  0  0  0  0  0
  130.8437  134.3578  156.8464 H   0  0  0  0  0  0  0  0  0  0  0  0
  131.1470  130.3955  155.8135 C   0  0  0  0  0  0  0  0  0  0  0  0
  131.2066  129.7941  154.5740 C   0  0  0  0  0  0  0  0  0  0  0  0
  130.5624  130.3595  151.3992 H   0  0  0  0  0  0  0  0  0  0  0  0
  131.1919  128.9715  152.1061 H   0  0  0  0  0  0  0  0  0  0  0  0
  129.9804  132.3204  152.6810 H   0  0  0  0  0  0  0  0  0  0  0  0
  129.8616  133.3956  154.8892 H   0  0  0  0  0  0  0  0  0  0  0  0
  130.2705  130.6484  158.6015 H   0  0  0  0  0  0  0  0  0  0  0  0
  130.7917  135.9145  158.9099 H   0  0  0  0  0  0  0  0  0  0  0  0
  132.4652  136.0637  161.1087 H   0  0  0  0  0  0  0  0  0  0  0  0
  134.2878  135.9958  162.1605 H   0  0  0  0  0  0  0  0  0  0  0  0
  133.5780  137.6192  161.9888 H   0  0  0  0  0  0  0  0  0  0  0  0
  135.4755  138.9189  161.6929 H   0  0  0  0  0  0  0  0  0  0  0  0
  137.7784  138.8740  161.5576 H   0  0  0  0  0  0  0  0  0  0  0  0
  139.0442  138.0232  163.5092 H   0  0  0  0  0  0  0  0  0  0  0  0
  138.5228  136.5552  162.6508 H   0  0  0  0  0  0  0  0  0  0  0  0
  137.2185  137.8419  165.0858 H   0  0  0  0  0  0  0  0  0  0  0  0
  137.9759  136.2324  164.9828 H   0  0  0  0  0  0  0  0  0  0  0  0
  135.5524  135.9449  164.8364 H   0  0  0  0  0  0  0  0  0  0  0  0
  136.2481  135.6209  163.2263 H   0  0  0  0  0  0  0  0  0  0  0  0
  130.1640  135.4319  164.6571 H   0  0  0  0  0  0  0  0  0  0  0  0
  128.3345  134.4889  163.3086 H   0  0  0  0  0  0  0  0  0  0  0  0
  128.1795  134.5128  159.7721 H   0  0  0  0  0  0  0  0  0  0  0  0
  127.9852  132.4423  161.8437 H   0  0  0  0  0  0  0  0  0  0  0  0
  126.2436  133.2221  159.3946 H   0  0  0  0  0  0  0  0  0  0  0  0
  126.7448  131.5575  159.9224 H   0  0  0  0  0  0  0  0  0  0  0  0
  125.3932  131.6989  161.9621 H   0  0  0  0  0  0  0  0  0  0  0  0
  124.4187  132.8902  160.9966 H   0  0  0  0  0  0  0  0  0  0  0  0
  126.2722  133.7092  163.0544 H   0  0  0  0  0  0  0  0  0  0  0  0
  125.9114  134.7388  161.6024 H   0  0  0  0  0  0  0  0  0  0  0  0
  131.4763  129.8587  156.6909 H   0  0  0  0  0  0  0  0  0  0  0  0
  131.5820  128.7858  154.4810 H   0  0  0  0  0  0  0  0  0  0  0  0
  1  2  1  0
  1 36  1  0
  1 37  1  0
  2 35  2  0
  2  3  1  0
  3  4  2  0
  3 38  1  0
  4  5  1  0
  4 39  1  0
  5  6  1  0
  5 34  2  0
  6 32  1  0
  6  7  2  0
  7  8  1  0
  7 40  1  0
  8  9  1  0
  8 10  1  0
 10 11  1  0
 10 32  2  0
 11 12  1  0
 11 41  1  0
 12 26  1  0
 12 13  2  0
 13 14  1  0
 13 42  1  0
 14 15  1  0
 14 24  2  0
 15 16  1  0
 16 17  1  0
 16 43  1  0
 16 44  1  0
 17 18  1  1
 17 23  1  0
 17 19  1  0
 19 20  2  0
 19 45  1  0
 20 21  1  0
 20 46  1  0
 21 22  1  0
 21 47  1  0
 21 48  1  0
 22 23  1  0
 22 49  1  0
 22 50  1  0
 23 51  1  0
 23 52  1  0
 24 25  1  0
 24 53  1  0
 25 26  2  0
 25 54  1  0
 26 27  1  0
 27 28  1  0
 27 55  1  0
 28 31  1  0
 28 29  1  0
 28 56  1  0
 29 30  1  0
 29 57  1  0
 29 58  1  0
 30 31  1  0
 30 59  1  0
 30 60  1  0
 31 61  1  0
 31 62  1  0
 32 33  1  0
 34 35  1  0
 34 63  1  0
 35 64  1  0
M  CHG  1  32   1
M  END
>  <DOCK_score>  (1) 
-57.182232

>  <SMILES>  (1) 
Nc1ccc(-c2c[nH]c(Nc3cc(SC[C@@H]4C=CCCC4)ccc3NC3CCC3)[nH+]2)cc1

$$$$
