CNC(=O)[C@H](Cc1ccccc1)NC1=CC(Nc2[nH]cc(-c3ccc(N)cc3)[nH+]2)CCC1
     RDKit          3D

 63 66  0  0  1  0  0  0  0  0999 V2000
  134.5794  138.9685  160.4544 C   0  0  0  0  0  0  0  0  0  0  0  0
  134.0168  138.1235  161.5106 N   0  0  0  0  0  0  0  0  0  0  0  0
  133.9414  138.5851  162.7746 C   0  0  0  0  0  0  0  0  0  0  0  0
  134.3396  139.7001  163.0376 O   0  0  0  0  0  0  0  0  0  0  0  0
  133.3624  137.7160  163.8610 C   0  0  2  0  0  0  0  0  0  0  0  0
  132.4939  138.2097  164.2971 H   0  0  0  0  0  0  0  0  0  0  0  0
  134.4165  137.4858  164.9459 C   0  0  0  0  0  0  0  0  0  0  0  0
  135.6171  136.8032  164.3428 C   0  0  0  0  0  0  0  0  0  0  0  0
  135.6862  135.4229  164.3153 C   0  0  0  0  0  0  0  0  0  0  0  0
  136.7854  134.7968  163.7579 C   0  0  0  0  0  0  0  0  0  0  0  0
  137.8203  135.5511  163.2374 C   0  0  0  0  0  0  0  0  0  0  0  0
  137.7535  136.9314  163.2695 C   0  0  0  0  0  0  0  0  0  0  0  0
  136.6520  137.5575  163.8222 C   0  0  0  0  0  0  0  0  0  0  0  0
  132.9576  136.4280  163.2923 N   0  0  0  0  0  0  0  0  0  0  0  0
  131.7525  136.3180  162.6100 C   0  0  0  0  0  0  0  0  0  0  0  0
  131.6684  135.4362  161.6520 C   0  0  0  0  0  0  0  0  0  0  0  0
  130.4307  135.1999  160.8369 C   0  0  2  0  0  0  0  0  0  0  0  0
  130.7992  135.0469  159.4273 N   0  0  0  0  0  0  0  0  0  0  0  0
  130.5005  133.8728  158.7572 C   0  0  0  0  0  0  0  0  0  0  0  0
  129.8729  132.7915  159.2942 N   0  0  0  0  0  0  0  0  0  0  0  0
  129.5571  132.7050  160.2073 H   0  0  0  0  0  0  0  0  0  0  0  0
  129.7635  131.8465  158.3017 C   0  0  0  0  0  0  0  0  0  0  0  0
  130.3319  132.3759  157.1904 C   0  0  0  0  0  0  0  0  0  0  0  0
  130.4454  131.7134  155.8678 C   0  0  0  0  0  0  0  0  0  0  0  0
  129.8503  132.2881  154.7459 C   0  0  0  0  0  0  0  0  0  0  0  0
  129.9616  131.6734  153.5166 C   0  0  0  0  0  0  0  0  0  0  0  0
  130.6567  130.4757  153.3978 C   0  0  0  0  0  0  0  0  0  0  0  0
  130.7629  129.8522  152.1521 N   0  0  0  0  0  0  0  0  0  0  0  0
  131.2463  129.8982  154.5160 C   0  0  0  0  0  0  0  0  0  0  0  0
  131.1424  130.5124  155.7461 C   0  0  0  0  0  0  0  0  0  0  0  0
  130.7779  133.6186  157.5016 N   0  0  0  0  0  0  0  0  0  0  0  0
  131.2271  134.2241  156.8912 H   0  0  0  0  0  0  0  0  0  0  0  0
  129.4693  136.3811  160.9845 C   0  0  0  0  0  0  0  0  0  0  0  0
  129.2982  136.6849  162.4781 C   0  0  0  0  0  0  0  0  0  0  0  0
  130.6256  137.2209  163.0189 C   0  0  0  0  0  0  0  0  0  0  0  0
  134.5575  138.4294  159.5073 H   0  0  0  0  0  0  0  0  0  0  0  0
  133.9901  139.8813  160.3667 H   0  0  0  0  0  0  0  0  0  0  0  0
  135.6095  139.2235  160.7034 H   0  0  0  0  0  0  0  0  0  0  0  0
  133.6983  137.2316  161.3001 H   0  0  0  0  0  0  0  0  0  0  0  0
  134.7178  138.4440  165.3689 H   0  0  0  0  0  0  0  0  0  0  0  0
  133.9978  136.8571  165.7318 H   0  0  0  0  0  0  0  0  0  0  0  0
  134.8798  134.8335  164.7261 H   0  0  0  0  0  0  0  0  0  0  0  0
  136.8376  133.7183  163.7330 H   0  0  0  0  0  0  0  0  0  0  0  0
  138.6810  135.0619  162.8057 H   0  0  0  0  0  0  0  0  0  0  0  0
  138.5622  137.5207  162.8631 H   0  0  0  0  0  0  0  0  0  0  0  0
  136.6001  138.6358  163.8477 H   0  0  0  0  0  0  0  0  0  0  0  0
  133.5309  135.6519  163.3922 H   0  0  0  0  0  0  0  0  0  0  0  0
  132.5423  134.8406  161.4321 H   0  0  0  0  0  0  0  0  0  0  0  0
  129.9384  134.2907  161.1824 H   0  0  0  0  0  0  0  0  0  0  0  0
  131.2526  135.7682  158.9634 H   0  0  0  0  0  0  0  0  0  0  0  0
  129.3115  130.8696  158.3903 H   0  0  0  0  0  0  0  0  0  0  0  0
  129.3060  133.2163  154.8386 H   0  0  0  0  0  0  0  0  0  0  0  0
  129.5044  132.1206  152.6463 H   0  0  0  0  0  0  0  0  0  0  0  0
  131.2482  129.0160  152.0686 H   0  0  0  0  0  0  0  0  0  0  0  0
  130.3518  130.2542  151.3716 H   0  0  0  0  0  0  0  0  0  0  0  0
  131.7860  128.9674  154.4213 H   0  0  0  0  0  0  0  0  0  0  0  0
  131.6012  130.0634  156.6148 H   0  0  0  0  0  0  0  0  0  0  0  0
  129.8811  137.2540  160.4779 H   0  0  0  0  0  0  0  0  0  0  0  0
  128.5033  136.1237  160.5501 H   0  0  0  0  0  0  0  0  0  0  0  0
  129.0283  135.7721  163.0090 H   0  0  0  0  0  0  0  0  0  0  0  0
  128.5185  137.4346  162.6125 H   0  0  0  0  0  0  0  0  0  0  0  0
  130.5789  137.2706  164.1067 H   0  0  0  0  0  0  0  0  0  0  0  0
  130.8007  138.2204  162.6207 H   0  0  0  0  0  0  0  0  0  0  0  0
  1  2  1  0
  1 36  1  0
  1 37  1  0
  1 38  1  0
  2  3  1  0
  2 39  1  0
  3  4  2  0
  3  5  1  0
  5  6  1  1
  5  7  1  0
  5 14  1  0
  7  8  1  0
  7 40  1  0
  7 41  1  0
  8 13  1  0
  8  9  2  0
  9 10  1  0
  9 42  1  0
 10 11  2  0
 10 43  1  0
 11 12  1  0
 11 44  1  0
 12 13  2  0
 12 45  1  0
 13 46  1  0
 14 15  1  0
 14 47  1  0
 15 35  1  0
 15 16  2  0
 16 17  1  0
 16 48  1  0
 17 18  1  0
 17 33  1  0
 17 49  1  1
 18 50  1  0
 19 18  1  0
 19 31  2  0
 19 20  1  0
 20 21  1  0
 20 22  1  0
 22 23  2  0
 22 51  1  0
 23 24  1  0
 23 31  1  0
 24 30  1  0
 24 25  2  0
 25 26  1  0
 25 52  1  0
 26 27  2  0
 26 53  1  0
 27 28  1  0
 27 29  1  0
 28 54  1  0
 28 55  1  0
 29 30  2  0
 29 56  1  0
 30 57  1  0
 31 32  1  0
 33 34  1  0
 33 58  1  0
 33 59  1  0
 34 35  1  0
 34 60  1  0
 34 61  1  0
 35 62  1  0
 35 63  1  0
M  CHG  1  31   1
M  END
>  <DOCK_score>  (1) 
-57.370163

>  <SMILES>  (1) 
CNC(=O)[C@H](Cc1ccccc1)NC1=CC(Nc2[nH]cc(-c3ccc(N)cc3)[nH+]2)CCC1

$$$$
