Fc1ccc(-c2c[nH]c(N[C@@H](CCc3ccccc3)c3cc(F)cc4cc[nH]c34)[nH+]2)cc1
     RDKit          3D

 55 59  0  0  1  0  0  0  0  0999 V2000
  131.1746  129.8210  151.6633 F   0  0  0  0  0  0  0  0  0  0  0  0
  130.9707  130.4228  152.8555 C   0  0  0  0  0  0  0  0  0  0  0  0
  130.1310  131.5215  152.9399 C   0  0  0  0  0  0  0  0  0  0  0  0
  129.9200  132.1394  154.1556 C   0  0  0  0  0  0  0  0  0  0  0  0
  130.5530  131.6565  155.2995 C   0  0  0  0  0  0  0  0  0  0  0  0
  130.3298  132.3176  156.6086 C   0  0  0  0  0  0  0  0  0  0  0  0
  129.8116  131.7357  157.7184 C   0  0  0  0  0  0  0  0  0  0  0  0
  129.7754  132.7017  158.6951 N   0  0  0  0  0  0  0  0  0  0  0  0
  129.4516  132.5892  159.6026 H   0  0  0  0  0  0  0  0  0  0  0  0
  130.2779  133.8448  158.1543 C   0  0  0  0  0  0  0  0  0  0  0  0
  130.4155  135.0553  158.8118 N   0  0  0  0  0  0  0  0  0  0  0  0
  130.0022  135.1796  160.2117 C   0  0  1  0  0  0  0  0  0  0  0  0
  130.2877  134.2795  160.7562 H   0  0  0  0  0  0  0  0  0  0  0  0
  130.6874  136.3947  160.8399 C   0  0  0  0  0  0  0  0  0  0  0  0
  130.2864  137.6581  160.0757 C   0  0  0  0  0  0  0  0  0  0  0  0
  130.9613  138.8550  160.6944 C   0  0  0  0  0  0  0  0  0  0  0  0
  130.3340  139.5548  161.7082 C   0  0  0  0  0  0  0  0  0  0  0  0
  130.9553  140.6499  162.2790 C   0  0  0  0  0  0  0  0  0  0  0  0
  132.1991  141.0514  161.8288 C   0  0  0  0  0  0  0  0  0  0  0  0
  132.8240  140.3548  160.8116 C   0  0  0  0  0  0  0  0  0  0  0  0
  132.2051  139.2566  160.2443 C   0  0  0  0  0  0  0  0  0  0  0  0
  128.5070  135.3549  160.2804 C   0  0  0  0  0  0  0  0  0  0  0  0
  127.7617  135.3769  159.1220 C   0  0  0  0  0  0  0  0  0  0  0  0
  126.3818  135.5374  159.1702 C   0  0  0  0  0  0  0  0  0  0  0  0
  125.6669  135.5562  158.0241 F   0  0  0  0  0  0  0  0  0  0  0  0
  125.7392  135.6771  160.3816 C   0  0  0  0  0  0  0  0  0  0  0  0
  126.4823  135.6566  161.5636 C   0  0  0  0  0  0  0  0  0  0  0  0
  126.1390  135.7734  162.9830 C   0  0  0  0  0  0  0  0  0  0  0  0
  127.2864  135.6799  163.6734 C   0  0  0  0  0  0  0  0  0  0  0  0
  128.3367  135.5128  162.8127 N   0  0  0  0  0  0  0  0  0  0  0  0
  129.2652  135.4205  163.0778 H   0  0  0  0  0  0  0  0  0  0  0  0
  127.8780  135.4889  161.5133 C   0  0  0  0  0  0  0  0  0  0  0  0
  130.6112  133.6105  156.9084 N   0  0  0  0  0  0  0  0  0  0  0  0
  130.9938  134.2592  156.2971 H   0  0  0  0  0  0  0  0  0  0  0  0
  131.4011  130.5542  155.2088 C   0  0  0  0  0  0  0  0  0  0  0  0
  131.6018  129.9391  153.9901 C   0  0  0  0  0  0  0  0  0  0  0  0
  129.6412  131.8952  152.0529 H   0  0  0  0  0  0  0  0  0  0  0  0
  129.2650  132.9955  154.2206 H   0  0  0  0  0  0  0  0  0  0  0  0
  129.4854  130.7107  157.8147 H   0  0  0  0  0  0  0  0  0  0  0  0
  130.7855  135.8213  158.3455 H   0  0  0  0  0  0  0  0  0  0  0  0
  130.3799  136.4872  161.8815 H   0  0  0  0  0  0  0  0  0  0  0  0
  131.7690  136.2681  160.7903 H   0  0  0  0  0  0  0  0  0  0  0  0
  130.5940  137.5656  159.0340 H   0  0  0  0  0  0  0  0  0  0  0  0
  129.2049  137.7848  160.1253 H   0  0  0  0  0  0  0  0  0  0  0  0
  129.3604  139.2438  162.0568 H   0  0  0  0  0  0  0  0  0  0  0  0
  130.4669  141.1943  163.0736 H   0  0  0  0  0  0  0  0  0  0  0  0
  132.6825  141.9095  162.2719 H   0  0  0  0  0  0  0  0  0  0  0  0
  133.7956  140.6687  160.4597 H   0  0  0  0  0  0  0  0  0  0  0  0
  132.6932  138.7125  159.4492 H   0  0  0  0  0  0  0  0  0  0  0  0
  128.2542  135.2681  158.1672 H   0  0  0  0  0  0  0  0  0  0  0  0
  124.6669  135.8012  160.4163 H   0  0  0  0  0  0  0  0  0  0  0  0
  125.1501  135.9090  163.3956 H   0  0  0  0  0  0  0  0  0  0  0  0
  127.3683  135.7287  164.7492 H   0  0  0  0  0  0  0  0  0  0  0  0
  131.8971  130.1794  156.0919 H   0  0  0  0  0  0  0  0  0  0  0  0
  132.2556  129.0824  153.9196 H   0  0  0  0  0  0  0  0  0  0  0  0
  1  2  1  0
  2 36  2  0
  2  3  1  0
  3  4  2  0
  3 37  1  0
  4  5  1  0
  4 38  1  0
  5  6  1  0
  5 35  2  0
  6 33  1  0
  6  7  2  0
  7  8  1  0
  7 39  1  0
  8  9  1  0
  8 10  1  0
 10 11  1  0
 10 33  2  0
 11 12  1  0
 11 40  1  0
 12 13  1  1
 12 14  1  0
 12 22  1  0
 14 15  1  0
 14 41  1  0
 14 42  1  0
 15 16  1  0
 15 43  1  0
 15 44  1  0
 16 21  1  0
 16 17  2  0
 17 18  1  0
 17 45  1  0
 18 19  2  0
 18 46  1  0
 19 20  1  0
 19 47  1  0
 20 21  2  0
 20 48  1  0
 21 49  1  0
 22 32  1  0
 22 23  2  0
 23 24  1  0
 23 50  1  0
 24 25  1  0
 24 26  2  0
 26 27  1  0
 26 51  1  0
 27 32  2  0
 27 28  1  0
 28 29  2  0
 28 52  1  0
 29 30  1  0
 29 53  1  0
 30 31  1  0
 30 32  1  0
 33 34  1  0
 35 36  1  0
 35 54  1  0
 36 55  1  0
M  CHG  1  33   1
M  END
>  <DOCK_score>  (1) 
-61.373005

>  <SMILES>  (1) 
Fc1ccc(-c2c[nH]c(N[C@@H](CCc3ccccc3)c3cc(F)cc4cc[nH]c34)[nH+]2)cc1

$$$$
