O=C1CC[C@H]([NH+]=C(NC2CC2)N[C@H]2[C@@H]3CC=CC[C@@H]32)CN1
     RDKit          3D

 46 49  0  0  1  0  0  0  0  0999 V2000
  123.9701  133.8143  161.0367 O   0  0  0  0  0  0  0  0  0  0  0  0
  125.1428  134.0393  160.8245 C   0  0  0  0  0  0  0  0  0  0  0  0
  125.9692  132.9605  160.1852 C   0  0  0  0  0  0  0  0  0  0  0  0
  127.4573  133.2497  160.3975 C   0  0  0  0  0  0  0  0  0  0  0  0
  127.7276  134.7086  160.0103 C   0  0  2  0  0  0  0  0  0  0  0  0
  127.3382  134.8998  159.0104 H   0  0  0  0  0  0  0  0  0  0  0  0
  129.1699  134.9640  160.0331 N   0  0  0  0  0  0  0  0  0  0  0  0
  129.5333  135.6408  160.6255 H   0  0  0  0  0  0  0  0  0  0  0  0
  129.9649  134.2820  159.2575 C   0  0  0  0  0  0  0  0  0  0  0  0
  131.2591  134.0321  159.6487 N   0  0  0  0  0  0  0  0  0  0  0  0
  131.7445  134.5326  160.9371 C   0  0  0  0  0  0  0  0  0  0  0  0
  132.7959  135.6438  160.9127 C   0  0  0  0  0  0  0  0  0  0  0  0
  133.1941  134.2215  161.3150 C   0  0  0  0  0  0  0  0  0  0  0  0
  129.5095  133.8124  158.0482 N   0  0  0  0  0  0  0  0  0  0  0  0
  130.4030  133.0458  157.1766 C   0  0  1  0  0  0  0  0  0  0  0  0
  131.4614  133.2952  157.2528 H   0  0  0  0  0  0  0  0  0  0  0  0
  130.0406  131.5845  156.9044 C   0  0  2  0  0  0  0  0  0  0  0  0
  129.1438  131.1802  157.3741 H   0  0  0  0  0  0  0  0  0  0  0  0
  131.2056  130.6034  156.6919 C   0  0  0  0  0  0  0  0  0  0  0  0
  131.2329  130.2013  155.2376 C   0  0  0  0  0  0  0  0  0  0  0  0
  131.0879  131.1017  154.2972 C   0  0  0  0  0  0  0  0  0  0  0  0
  130.8911  132.5546  154.6538 C   0  0  0  0  0  0  0  0  0  0  0  0
  129.8708  132.6425  155.8000 C   0  0  2  0  0  0  0  0  0  0  0  0
  128.8663  132.9617  155.5224 H   0  0  0  0  0  0  0  0  0  0  0  0
  127.0244  135.6227  161.0118 C   0  0  0  0  0  0  0  0  0  0  0  0
  125.6293  135.2316  161.1709 N   0  0  0  0  0  0  0  0  0  0  0  0
  125.7194  131.9992  160.6342 H   0  0  0  0  0  0  0  0  0  0  0  0
  125.7558  132.9261  159.1169 H   0  0  0  0  0  0  0  0  0  0  0  0
  127.7155  133.0942  161.4450 H   0  0  0  0  0  0  0  0  0  0  0  0
  128.0530  132.5870  159.7699 H   0  0  0  0  0  0  0  0  0  0  0  0
  131.8508  133.5246  159.0714 H   0  0  0  0  0  0  0  0  0  0  0  0
  131.0083  134.5537  161.7407 H   0  0  0  0  0  0  0  0  0  0  0  0
  133.1266  136.0024  159.9379 H   0  0  0  0  0  0  0  0  0  0  0  0
  132.7519  136.3959  161.7003 H   0  0  0  0  0  0  0  0  0  0  0  0
  133.4117  134.0386  162.3673 H   0  0  0  0  0  0  0  0  0  0  0  0
  133.7865  133.6442  160.6052 H   0  0  0  0  0  0  0  0  0  0  0  0
  128.5964  133.9888  157.7723 H   0  0  0  0  0  0  0  0  0  0  0  0
  131.0589  129.7201  157.3133 H   0  0  0  0  0  0  0  0  0  0  0  0
  132.1470  131.0849  156.9562 H   0  0  0  0  0  0  0  0  0  0  0  0
  131.3731  129.1643  154.9702 H   0  0  0  0  0  0  0  0  0  0  0  0
  131.1092  130.8020  153.2599 H   0  0  0  0  0  0  0  0  0  0  0  0
  130.5147  133.0969  153.7864 H   0  0  0  0  0  0  0  0  0  0  0  0
  131.8399  132.9849  154.9745 H   0  0  0  0  0  0  0  0  0  0  0  0
  127.0718  136.6523  160.6574 H   0  0  0  0  0  0  0  0  0  0  0  0
  127.5302  135.5526  161.9748 H   0  0  0  0  0  0  0  0  0  0  0  0
  125.0155  135.8808  161.5488 H   0  0  0  0  0  0  0  0  0  0  0  0
  1  2  2  0
  2 26  1  0
  2  3  1  0
  3  4  1  0
  3 27  1  0
  3 28  1  0
  4  5  1  0
  4 29  1  0
  4 30  1  0
  5  6  1  6
  5  7  1  0
  5 25  1  0
  7  8  1  0
  9  7  2  0
  9 10  1  0
  9 14  1  0
 10 11  1  0
 10 31  1  0
 11 13  1  0
 11 12  1  0
 11 32  1  0
 12 13  1  0
 12 33  1  0
 12 34  1  0
 13 35  1  0
 13 36  1  0
 14 15  1  0
 14 37  1  0
 15 16  1  6
 15 23  1  0
 15 17  1  0
 17 18  1  1
 17 23  1  0
 17 19  1  0
 19 20  1  0
 19 38  1  0
 19 39  1  0
 20 21  2  0
 20 40  1  0
 21 22  1  0
 21 41  1  0
 22 23  1  0
 22 42  1  0
 22 43  1  0
 23 24  1  6
 25 26  1  0
 25 44  1  0
 25 45  1  0
 26 46  1  0
M  CHG  1   7   1
M  END
>  <DOCK_score>  (1) 
-41.434875

>  <SMILES>  (1) 
O=C1CC[C@H]([NH+]=C(NC2CC2)N[C@H]2[C@@H]3CC=CC[C@@H]32)CN1

$$$$
