O=C1CCC(NC(NC2CC2)=[NH+][C@H]2COc3ccc(CC4CCCO4)cc3C2)CN1
     RDKit          3D

 63 67  0  0  1  0  0  0  0  0999 V2000
  123.7479  133.6711  161.2668 O   0  0  0  0  0  0  0  0  0  0  0  0
  124.9229  133.8711  161.0428 C   0  0  0  0  0  0  0  0  0  0  0  0
  125.7801  132.7027  160.6487 C   0  0  0  0  0  0  0  0  0  0  0  0
  127.2580  133.0545  160.8356 C   0  0  0  0  0  0  0  0  0  0  0  0
  127.5200  134.4134  160.1752 C   0  0  2  0  0  0  0  0  0  0  0  0
  128.9575  134.6960  160.1855 N   0  0  0  0  0  0  0  0  0  0  0  0
  129.7449  134.2929  159.1330 C   0  0  0  0  0  0  0  0  0  0  0  0
  129.1833  133.6246  158.0708 N   0  0  0  0  0  0  0  0  0  0  0  0
  130.0225  133.1952  156.9493 C   0  0  0  0  0  0  0  0  0  0  0  0
  129.4959  132.0619  156.0665 C   0  0  0  0  0  0  0  0  0  0  0  0
  130.6553  131.8046  157.0325 C   0  0  0  0  0  0  0  0  0  0  0  0
  131.0238  134.5441  159.1423 N   0  0  0  0  0  0  0  0  0  0  0  0
  131.4982  134.6767  158.3067 H   0  0  0  0  0  0  0  0  0  0  0  0
  131.7449  134.6263  160.4149 C   0  0  1  0  0  0  0  0  0  0  0  0
  131.0546  134.4517  161.2402 H   0  0  0  0  0  0  0  0  0  0  0  0
  132.8628  133.5762  160.4447 C   0  0  0  0  0  0  0  0  0  0  0  0
  133.4792  133.6105  161.7325 O   0  0  0  0  0  0  0  0  0  0  0  0
  133.8538  134.8198  162.2253 C   0  0  0  0  0  0  0  0  0  0  0  0
  134.7605  134.8550  163.2802 C   0  0  0  0  0  0  0  0  0  0  0  0
  135.1615  136.0637  163.8110 C   0  0  0  0  0  0  0  0  0  0  0  0
  134.6613  137.2449  163.2942 C   0  0  0  0  0  0  0  0  0  0  0  0
  135.0973  138.5657  163.8742 C   0  0  0  0  0  0  0  0  0  0  0  0
  134.1513  138.9612  165.0098 C   0  0  1  0  0  0  0  0  0  0  0  0
  134.8230  140.0188  165.9070 C   0  0  0  0  0  0  0  0  0  0  0  0
  133.8613  141.2307  165.8501 C   0  0  0  0  0  0  0  0  0  0  0  0
  132.5326  140.5701  165.4023 C   0  0  0  0  0  0  0  0  0  0  0  0
  132.9576  139.5515  164.4684 O   0  0  0  0  0  0  0  0  0  0  0  0
  133.7626  137.2138  162.2460 C   0  0  0  0  0  0  0  0  0  0  0  0
  133.3580  136.0034  161.7078 C   0  0  0  0  0  0  0  0  0  0  0  0
  132.3815  136.0110  160.5588 C   0  0  0  0  0  0  0  0  0  0  0  0
  126.7793  135.4929  160.9655 C   0  0  0  0  0  0  0  0  0  0  0  0
  125.3845  135.1167  161.1591 N   0  0  0  0  0  0  0  0  0  0  0  0
  125.5963  132.4550  159.6031 H   0  0  0  0  0  0  0  0  0  0  0  0
  125.5307  131.8440  161.2721 H   0  0  0  0  0  0  0  0  0  0  0  0
  127.8791  132.2921  160.3654 H   0  0  0  0  0  0  0  0  0  0  0  0
  127.4898  133.1125  161.8992 H   0  0  0  0  0  0  0  0  0  0  0  0
  127.1581  134.3963  159.1471 H   0  0  0  0  0  0  0  0  0  0  0  0
  129.3537  135.1674  160.9350 H   0  0  0  0  0  0  0  0  0  0  0  0
  128.2323  133.4339  158.0658 H   0  0  0  0  0  0  0  0  0  0  0  0
  130.6002  133.9829  156.4658 H   0  0  0  0  0  0  0  0  0  0  0  0
  128.5252  131.6358  156.3201 H   0  0  0  0  0  0  0  0  0  0  0  0
  129.7277  132.1038  155.0022 H   0  0  0  0  0  0  0  0  0  0  0  0
  131.6491  131.6774  156.6033 H   0  0  0  0  0  0  0  0  0  0  0  0
  130.4475  131.2094  157.9218 H   0  0  0  0  0  0  0  0  0  0  0  0
  132.4419  132.5868  160.2655 H   0  0  0  0  0  0  0  0  0  0  0  0
  133.6020  133.8050  159.6769 H   0  0  0  0  0  0  0  0  0  0  0  0
  135.1516  133.9333  163.6848 H   0  0  0  0  0  0  0  0  0  0  0  0
  135.8657  136.0874  164.6295 H   0  0  0  0  0  0  0  0  0  0  0  0
  136.1121  138.4753  164.2616 H   0  0  0  0  0  0  0  0  0  0  0  0
  135.0717  139.3299  163.0973 H   0  0  0  0  0  0  0  0  0  0  0  0
  133.8948  138.0823  165.6013 H   0  0  0  0  0  0  0  0  0  0  0  0
  134.9127  139.6506  166.9290 H   0  0  0  0  0  0  0  0  0  0  0  0
  135.8016  140.2894  165.5107 H   0  0  0  0  0  0  0  0  0  0  0  0
  133.7555  141.6899  166.8331 H   0  0  0  0  0  0  0  0  0  0  0  0
  134.1998  141.9617  165.1158 H   0  0  0  0  0  0  0  0  0  0  0  0
  132.0222  140.1190  166.2533 H   0  0  0  0  0  0  0  0  0  0  0  0
  131.8876  141.2992  164.9119 H   0  0  0  0  0  0  0  0  0  0  0  0
  133.3738  138.1376  161.8439 H   0  0  0  0  0  0  0  0  0  0  0  0
  132.9069  136.2661  159.6385 H   0  0  0  0  0  0  0  0  0  0  0  0
  131.6032  136.7502  160.7483 H   0  0  0  0  0  0  0  0  0  0  0  0
  127.2565  135.6192  161.9373 H   0  0  0  0  0  0  0  0  0  0  0  0
  126.8259  136.4350  160.4194 H   0  0  0  0  0  0  0  0  0  0  0  0
  124.7523  135.8164  161.3867 H   0  0  0  0  0  0  0  0  0  0  0  0
  1  2  2  0
  2 32  1  0
  2  3  1  0
  3  4  1  0
  3 33  1  0
  3 34  1  0
  4  5  1  0
  4 35  1  0
  4 36  1  0
  5  6  1  0
  5 31  1  0
  5 37  1  6
  6 38  1  0
  7  6  1  0
  7  8  1  0
  7 12  2  0
  8  9  1  0
  8 39  1  0
  9 11  1  0
  9 10  1  0
  9 40  1  0
 10 11  1  0
 10 41  1  0
 10 42  1  0
 11 43  1  0
 11 44  1  0
 12 13  1  0
 12 14  1  0
 14 15  1  1
 14 30  1  0
 14 16  1  0
 16 17  1  0
 16 45  1  0
 16 46  1  0
 17 18  1  0
 18 29  2  0
 18 19  1  0
 19 20  2  0
 19 47  1  0
 20 21  1  0
 20 48  1  0
 21 22  1  0
 21 28  2  0
 22 23  1  0
 22 49  1  0
 22 50  1  0
 23 27  1  0
 23 24  1  0
 23 51  1  1
 24 25  1  0
 24 52  1  0
 24 53  1  0
 25 26  1  0
 25 54  1  0
 25 55  1  0
 26 27  1  0
 26 56  1  0
 26 57  1  0
 28 29  1  0
 28 58  1  0
 29 30  1  0
 30 59  1  0
 30 60  1  0
 31 32  1  0
 31 61  1  0
 31 62  1  0
 32 63  1  0
M  CHG  1  12   1
M  END
>  <DOCK_score>  (1) 
-47.28265

>  <SMILES>  (1) 
O=C1CCC(NC(NC2CC2)=[NH+][C@H]2COc3ccc(CC4CCCO4)cc3C2)CN1

$$$$
