NCCN1CC[NH+]=C1NCc1ccc(NC2=CC(=O)CCC2)cc1
     RDKit          3D

 50 52  0  0  1  0  0  0  0  0999 V2000
  131.5856  131.8650  158.9597 N   0  0  0  0  0  0  0  0  0  0  0  0
  131.4218  130.4755  158.5121 C   0  0  0  0  0  0  0  0  0  0  0  0
  130.1819  130.3693  157.6219 C   0  0  0  0  0  0  0  0  0  0  0  0
  130.3414  131.2423  156.4563 N   0  0  0  0  0  0  0  0  0  0  0  0
  130.9442  130.8592  155.1687 C   0  0  0  0  0  0  0  0  0  0  0  0
  130.8471  132.1516  154.3340 C   0  0  0  0  0  0  0  0  0  0  0  0
  130.1993  133.1115  155.2386 N   0  0  0  0  0  0  0  0  0  0  0  0
  129.9871  134.0309  155.0138 H   0  0  0  0  0  0  0  0  0  0  0  0
  129.9556  132.5525  156.3788 C   0  0  0  0  0  0  0  0  0  0  0  0
  129.3548  133.2164  157.4222 N   0  0  0  0  0  0  0  0  0  0  0  0
  128.9670  134.6210  157.2703 C   0  0  0  0  0  0  0  0  0  0  0  0
  128.3343  135.1084  158.5482 C   0  0  0  0  0  0  0  0  0  0  0  0
  128.6976  136.3349  159.0738 C   0  0  0  0  0  0  0  0  0  0  0  0
  128.1156  136.7871  160.2418 C   0  0  0  0  0  0  0  0  0  0  0  0
  127.1725  136.0032  160.8947 C   0  0  0  0  0  0  0  0  0  0  0  0
  126.5856  136.4556  162.0795 N   0  0  0  0  0  0  0  0  0  0  0  0
  127.3648  136.7236  163.1667 C   0  0  0  0  0  0  0  0  0  0  0  0
  126.9782  137.6786  164.0402 C   0  0  0  0  0  0  0  0  0  0  0  0
  127.7342  137.9848  165.1761 C   0  0  0  0  0  0  0  0  0  0  0  0
  127.3504  138.8484  165.9403 O   0  0  0  0  0  0  0  0  0  0  0  0
  129.0235  137.2575  165.4580 C   0  0  0  0  0  0  0  0  0  0  0  0
  128.9424  135.8466  164.8665 C   0  0  0  0  0  0  0  0  0  0  0  0
  128.6430  135.9544  163.3686 C   0  0  0  0  0  0  0  0  0  0  0  0
  126.8140  134.7693  160.3669 C   0  0  0  0  0  0  0  0  0  0  0  0
  127.3959  134.3257  159.1956 C   0  0  0  0  0  0  0  0  0  0  0  0
  130.7559  132.1934  159.4307 H   0  0  0  0  0  0  0  0  0  0  0  0
  132.3984  131.9614  159.5497 H   0  0  0  0  0  0  0  0  0  0  0  0
  131.3031  129.8260  159.3792 H   0  0  0  0  0  0  0  0  0  0  0  0
  132.3022  130.1697  157.9467 H   0  0  0  0  0  0  0  0  0  0  0  0
  129.3015  130.6750  158.1871 H   0  0  0  0  0  0  0  0  0  0  0  0
  130.0603  129.3383  157.2896 H   0  0  0  0  0  0  0  0  0  0  0  0
  131.9852  130.5658  155.3036 H   0  0  0  0  0  0  0  0  0  0  0  0
  130.3762  130.0539  154.7027 H   0  0  0  0  0  0  0  0  0  0  0  0
  131.8407  132.4992  154.0509 H   0  0  0  0  0  0  0  0  0  0  0  0
  130.2334  131.9891  153.4479 H   0  0  0  0  0  0  0  0  0  0  0  0
  129.1878  132.7548  158.2588 H   0  0  0  0  0  0  0  0  0  0  0  0
  129.8508  135.2203  157.0508 H   0  0  0  0  0  0  0  0  0  0  0  0
  128.2526  134.7142  156.4525 H   0  0  0  0  0  0  0  0  0  0  0  0
  129.4342  136.9415  158.5682 H   0  0  0  0  0  0  0  0  0  0  0  0
  128.3968  137.7468  160.6495 H   0  0  0  0  0  0  0  0  0  0  0  0
  125.6251  136.5778  162.1296 H   0  0  0  0  0  0  0  0  0  0  0  0
  126.0596  138.2168  163.8588 H   0  0  0  0  0  0  0  0  0  0  0  0
  129.1776  137.1928  166.5350 H   0  0  0  0  0  0  0  0  0  0  0  0
  129.8535  137.7968  165.0016 H   0  0  0  0  0  0  0  0  0  0  0  0
  128.1455  135.2894  165.3591 H   0  0  0  0  0  0  0  0  0  0  0  0
  129.8921  135.3320  165.0129 H   0  0  0  0  0  0  0  0  0  0  0  0
  128.5363  134.9552  162.9465 H   0  0  0  0  0  0  0  0  0  0  0  0
  129.4619  136.4736  162.8708 H   0  0  0  0  0  0  0  0  0  0  0  0
  126.0814  134.1574  160.8722 H   0  0  0  0  0  0  0  0  0  0  0  0
  127.1178  133.3663  158.7849 H   0  0  0  0  0  0  0  0  0  0  0  0
  1  2  1  0
  1 26  1  0
  1 27  1  0
  2  3  1  0
  2 28  1  0
  2 29  1  0
  3  4  1  0
  3 30  1  0
  3 31  1  0
  4  9  1  0
  4  5  1  0
  5  6  1  0
  5 32  1  0
  5 33  1  0
  6  7  1  0
  6 34  1  0
  6 35  1  0
  7  8  1  0
  7  9  2  0
  9 10  1  0
 10 11  1  0
 10 36  1  0
 11 12  1  0
 11 37  1  0
 11 38  1  0
 12 25  1  0
 12 13  2  0
 13 14  1  0
 13 39  1  0
 14 15  2  0
 14 40  1  0
 15 16  1  0
 15 24  1  0
 16 17  1  0
 16 41  1  0
 17 23  1  0
 17 18  2  0
 18 19  1  0
 18 42  1  0
 19 20  2  0
 19 21  1  0
 21 22  1  0
 21 43  1  0
 21 44  1  0
 22 23  1  0
 22 45  1  0
 22 46  1  0
 23 47  1  0
 23 48  1  0
 24 25  2  0
 24 49  1  0
 25 50  1  0
M  CHG  1   7   1
M  END
>  <DOCK_score>  (1) 
-42.740101

>  <SMILES>  (1) 
NCCN1CC[NH+]=C1NCc1ccc(NC2=CC(=O)CCC2)cc1

$$$$
