Nc1ccc(-c2c[nH]c(N[C@H](Cc3ccc(N4CCCC4)cc3)c3ccc(F)cc3)[nH+]2)cc1
     RDKit          3D

 62 66  0  0  1  0  0  0  0  0999 V2000
  131.6251  129.8838  152.4036 N   0  0  0  0  0  0  0  0  0  0  0  0
  131.2664  130.5939  153.5520 C   0  0  0  0  0  0  0  0  0  0  0  0
  130.9968  131.9549  153.4701 C   0  0  0  0  0  0  0  0  0  0  0  0
  130.6423  132.6577  154.6024 C   0  0  0  0  0  0  0  0  0  0  0  0
  130.5543  132.0022  155.8294 C   0  0  0  0  0  0  0  0  0  0  0  0
  130.1735  132.7563  157.0490 C   0  0  0  0  0  0  0  0  0  0  0  0
  129.5127  132.2565  158.1223 C   0  0  0  0  0  0  0  0  0  0  0  0
  129.3678  133.2897  159.0177 N   0  0  0  0  0  0  0  0  0  0  0  0
  128.9339  133.2427  159.8840 H   0  0  0  0  0  0  0  0  0  0  0  0
  129.9450  134.3904  158.4639 C   0  0  0  0  0  0  0  0  0  0  0  0
  130.0143  135.6442  159.0469 N   0  0  0  0  0  0  0  0  0  0  0  0
  129.4344  135.8683  160.3734 C   0  0  2  0  0  0  0  0  0  0  0  0
  128.4888  135.3319  160.4518 H   0  0  0  0  0  0  0  0  0  0  0  0
  129.1902  137.3649  160.5771 C   0  0  0  0  0  0  0  0  0  0  0  0
  130.4977  138.1065  160.4686 C   0  0  0  0  0  0  0  0  0  0  0  0
  130.9234  138.5781  159.2404 C   0  0  0  0  0  0  0  0  0  0  0  0
  132.1183  139.2630  159.1383 C   0  0  0  0  0  0  0  0  0  0  0  0
  132.8984  139.4678  160.2694 C   0  0  0  0  0  0  0  0  0  0  0  0
  134.1104  140.1546  160.1687 N   0  0  0  0  0  0  0  0  0  0  0  0
  135.0982  139.6380  161.1503 C   0  0  0  0  0  0  0  0  0  0  0  0
  136.4557  140.1008  160.5643 C   0  0  0  0  0  0  0  0  0  0  0  0
  136.2495  139.9346  159.0412 C   0  0  0  0  0  0  0  0  0  0  0  0
  134.7232  139.9559  158.8374 C   0  0  0  0  0  0  0  0  0  0  0  0
  132.4705  138.9878  161.5005 C   0  0  0  0  0  0  0  0  0  0  0  0
  131.2717  138.3087  161.5965 C   0  0  0  0  0  0  0  0  0  0  0  0
  130.3857  135.3664  161.4288 C   0  0  0  0  0  0  0  0  0  0  0  0
  129.8956  134.8927  162.6316 C   0  0  0  0  0  0  0  0  0  0  0  0
  130.7669  134.4277  163.5983 C   0  0  0  0  0  0  0  0  0  0  0  0
  132.1317  134.4459  163.3660 C   0  0  0  0  0  0  0  0  0  0  0  0
  132.9846  133.9959  164.3121 F   0  0  0  0  0  0  0  0  0  0  0  0
  132.6216  134.9254  162.1631 C   0  0  0  0  0  0  0  0  0  0  0  0
  131.7483  135.3849  161.1958 C   0  0  0  0  0  0  0  0  0  0  0  0
  130.4253  134.0678  157.2876 N   0  0  0  0  0  0  0  0  0  0  0  0
  130.8867  134.6708  156.6840 H   0  0  0  0  0  0  0  0  0  0  0  0
  130.8303  130.6381  155.9100 C   0  0  0  0  0  0  0  0  0  0  0  0
  131.1794  129.9382  154.7743 C   0  0  0  0  0  0  0  0  0  0  0  0
  131.6857  130.3406  151.5500 H   0  0  0  0  0  0  0  0  0  0  0  0
  131.8133  128.9339  152.4598 H   0  0  0  0  0  0  0  0  0  0  0  0
  131.0654  132.4623  152.5193 H   0  0  0  0  0  0  0  0  0  0  0  0
  130.4325  133.7153  154.5383 H   0  0  0  0  0  0  0  0  0  0  0  0
  129.1700  131.2405  158.2511 H   0  0  0  0  0  0  0  0  0  0  0  0
  130.4469  136.3743  158.5770 H   0  0  0  0  0  0  0  0  0  0  0  0
  128.5023  137.7279  159.8137 H   0  0  0  0  0  0  0  0  0  0  0  0
  128.7588  137.5317  161.5641 H   0  0  0  0  0  0  0  0  0  0  0  0
  130.3188  138.4142  158.3605 H   0  0  0  0  0  0  0  0  0  0  0  0
  132.4482  139.6348  158.1794 H   0  0  0  0  0  0  0  0  0  0  0  0
  134.9321  140.0806  162.1324 H   0  0  0  0  0  0  0  0  0  0  0  0
  135.0534  138.5503  161.2048 H   0  0  0  0  0  0  0  0  0  0  0  0
  137.2655  139.4615  160.9159 H   0  0  0  0  0  0  0  0  0  0  0  0
  136.6490  141.1435  160.8159 H   0  0  0  0  0  0  0  0  0  0  0  0
  136.6629  138.9837  158.7051 H   0  0  0  0  0  0  0  0  0  0  0  0
  136.7145  140.7613  158.5041 H   0  0  0  0  0  0  0  0  0  0  0  0
  134.3919  139.0078  158.4139 H   0  0  0  0  0  0  0  0  0  0  0  0
  134.4455  140.7757  158.1746 H   0  0  0  0  0  0  0  0  0  0  0  0
  133.0744  139.1457  162.3820 H   0  0  0  0  0  0  0  0  0  0  0  0
  130.9387  137.9349  162.5535 H   0  0  0  0  0  0  0  0  0  0  0  0
  128.8313  134.8824  162.8142 H   0  0  0  0  0  0  0  0  0  0  0  0
  130.3835  134.0540  164.5364 H   0  0  0  0  0  0  0  0  0  0  0  0
  133.6861  134.9404  161.9809 H   0  0  0  0  0  0  0  0  0  0  0  0
  132.1303  135.7587  160.2572 H   0  0  0  0  0  0  0  0  0  0  0  0
  130.7672  130.1292  156.8603 H   0  0  0  0  0  0  0  0  0  0  0  0
  131.3897  128.8807  154.8356 H   0  0  0  0  0  0  0  0  0  0  0  0
  1  2  1  0
  1 37  1  0
  1 38  1  0
  2 36  2  0
  2  3  1  0
  3  4  2  0
  3 39  1  0
  4  5  1  0
  4 40  1  0
  5  6  1  0
  5 35  2  0
  6 33  1  0
  6  7  2  0
  7  8  1  0
  7 41  1  0
  8  9  1  0
  8 10  1  0
 10 11  1  0
 10 33  2  0
 11 12  1  0
 11 42  1  0
 12 13  1  6
 12 14  1  0
 12 26  1  0
 14 15  1  0
 14 43  1  0
 14 44  1  0
 15 25  1  0
 15 16  2  0
 16 17  1  0
 16 45  1  0
 17 18  2  0
 17 46  1  0
 18 19  1  0
 18 24  1  0
 19 23  1  0
 19 20  1  0
 20 21  1  0
 20 47  1  0
 20 48  1  0
 21 22  1  0
 21 49  1  0
 21 50  1  0
 22 23  1  0
 22 51  1  0
 22 52  1  0
 23 53  1  0
 23 54  1  0
 24 25  2  0
 24 55  1  0
 25 56  1  0
 26 32  1  0
 26 27  2  0
 27 28  1  0
 27 57  1  0
 28 29  2  0
 28 58  1  0
 29 30  1  0
 29 31  1  0
 31 32  2  0
 31 59  1  0
 32 60  1  0
 33 34  1  0
 35 36  1  0
 35 61  1  0
 36 62  1  0
M  CHG  1  33   1
M  END
>  <DOCK_score>  (1) 
-58.957024

>  <SMILES>  (1) 
Nc1ccc(-c2c[nH]c(N[C@H](Cc3ccc(N4CCCC4)cc3)c3ccc(F)cc3)[nH+]2)cc1

$$$$
