CCc1ccc(Sc2ccc(CC[NH+]=C(NC3CCCCCC3)N[C@H]3CCC(=O)NC3)cc2)cc1
     RDKit          3D

 76 79  0  0  1  0  0  0  0  0999 V2000
  130.5298  141.7225  167.2887 C   0  0  0  0  0  0  0  0  0  0  0  0
  131.4261  141.1579  168.3929 C   0  0  0  0  0  0  0  0  0  0  0  0
  132.5277  140.3362  167.7747 C   0  0  0  0  0  0  0  0  0  0  0  0
  133.7247  140.9363  167.4285 C   0  0  0  0  0  0  0  0  0  0  0  0
  134.7383  140.1854  166.8666 C   0  0  0  0  0  0  0  0  0  0  0  0
  134.5524  138.8262  166.6443 C   0  0  0  0  0  0  0  0  0  0  0  0
  135.8426  137.8641  165.9271 S   0  0  0  0  0  0  0  0  0  0  0  0
  135.1021  137.2439  164.4534 C   0  0  0  0  0  0  0  0  0  0  0  0
  134.6342  138.1240  163.4852 C   0  0  0  0  0  0  0  0  0  0  0  0
  134.0592  137.6341  162.3292 C   0  0  0  0  0  0  0  0  0  0  0  0
  133.9393  136.2695  162.1392 C   0  0  0  0  0  0  0  0  0  0  0  0
  133.3060  135.7390  160.8788 C   0  0  0  0  0  0  0  0  0  0  0  0
  131.7987  135.5846  161.0913 C   0  0  0  0  0  0  0  0  0  0  0  0
  131.1831  135.0688  159.8661 N   0  0  0  0  0  0  0  0  0  0  0  0
  131.7323  134.8833  159.0883 H   0  0  0  0  0  0  0  0  0  0  0  0
  129.8974  134.8592  159.8211 C   0  0  0  0  0  0  0  0  0  0  0  0
  129.3196  134.3752  158.6712 N   0  0  0  0  0  0  0  0  0  0  0  0
  130.0864  133.5043  157.7768 C   0  0  0  0  0  0  0  0  0  0  0  0
  129.2244  133.1738  156.5412 C   0  0  0  0  0  0  0  0  0  0  0  0
  130.1351  132.7369  155.4260 C   0  0  0  0  0  0  0  0  0  0  0  0
  130.2997  131.2062  155.3647 C   0  0  0  0  0  0  0  0  0  0  0  0
  130.4575  130.5661  156.7570 C   0  0  0  0  0  0  0  0  0  0  0  0
  131.3586  131.3650  157.6594 C   0  0  0  0  0  0  0  0  0  0  0  0
  130.4865  132.3117  158.5091 C   0  0  0  0  0  0  0  0  0  0  0  0
  129.1189  135.1224  160.9233 N   0  0  0  0  0  0  0  0  0  0  0  0
  127.6739  134.8869  160.8727 C   0  0  1  0  0  0  0  0  0  0  0  0
  127.3157  135.0294  159.8531 H   0  0  0  0  0  0  0  0  0  0  0  0
  127.3697  133.4550  161.3294 C   0  0  0  0  0  0  0  0  0  0  0  0
  125.8828  133.1776  161.0940 C   0  0  0  0  0  0  0  0  0  0  0  0
  125.0586  134.3015  161.6533 C   0  0  0  0  0  0  0  0  0  0  0  0
  123.8773  134.1059  161.8465 O   0  0  0  0  0  0  0  0  0  0  0  0
  125.5559  135.5030  161.9487 N   0  0  0  0  0  0  0  0  0  0  0  0
  126.9619  135.8619  161.8112 C   0  0  0  0  0  0  0  0  0  0  0  0
  134.3986  135.3907  163.1032 C   0  0  0  0  0  0  0  0  0  0  0  0
  134.9794  135.8732  164.2592 C   0  0  0  0  0  0  0  0  0  0  0  0
  133.3462  138.2278  166.9884 C   0  0  0  0  0  0  0  0  0  0  0  0
  132.3373  138.9848  167.5499 C   0  0  0  0  0  0  0  0  0  0  0  0
  129.7331  142.3169  167.7359 H   0  0  0  0  0  0  0  0  0  0  0  0
  131.1234  142.3512  166.6249 H   0  0  0  0  0  0  0  0  0  0  0  0
  130.0947  140.9016  166.7188 H   0  0  0  0  0  0  0  0  0  0  0  0
  130.8326  140.5293  169.0566 H   0  0  0  0  0  0  0  0  0  0  0  0
  131.8612  141.9789  168.9628 H   0  0  0  0  0  0  0  0  0  0  0  0
  133.8685  141.9924  167.6019 H   0  0  0  0  0  0  0  0  0  0  0  0
  135.6743  140.6537  166.6007 H   0  0  0  0  0  0  0  0  0  0  0  0
  134.7239  139.1898  163.6348 H   0  0  0  0  0  0  0  0  0  0  0  0
  133.6991  138.3176  161.5745 H   0  0  0  0  0  0  0  0  0  0  0  0
  133.4880  136.4349  160.0599 H   0  0  0  0  0  0  0  0  0  0  0  0
  133.7396  134.7691  160.6347 H   0  0  0  0  0  0  0  0  0  0  0  0
  131.6166  134.8886  161.9102 H   0  0  0  0  0  0  0  0  0  0  0  0
  131.3650  136.5543  161.3355 H   0  0  0  0  0  0  0  0  0  0  0  0
  128.4045  134.6104  158.4521 H   0  0  0  0  0  0  0  0  0  0  0  0
  130.9808  134.0345  157.4499 H   0  0  0  0  0  0  0  0  0  0  0  0
  128.5302  132.3692  156.7837 H   0  0  0  0  0  0  0  0  0  0  0  0
  128.6691  134.0602  156.2346 H   0  0  0  0  0  0  0  0  0  0  0  0
  131.1149  133.1914  155.5722 H   0  0  0  0  0  0  0  0  0  0  0  0
  129.7245  133.0856  154.4784 H   0  0  0  0  0  0  0  0  0  0  0  0
  131.1810  130.9711  154.7677 H   0  0  0  0  0  0  0  0  0  0  0  0
  129.4237  130.7777  154.8779 H   0  0  0  0  0  0  0  0  0  0  0  0
  130.8731  129.5653  156.6401 H   0  0  0  0  0  0  0  0  0  0  0  0
  129.4743  130.4871  157.2208 H   0  0  0  0  0  0  0  0  0  0  0  0
  132.0543  131.9497  157.0575 H   0  0  0  0  0  0  0  0  0  0  0  0
  131.9150  130.6938  158.3136 H   0  0  0  0  0  0  0  0  0  0  0  0
  131.0495  132.6124  159.3927 H   0  0  0  0  0  0  0  0  0  0  0  0
  129.5921  131.7766  158.8279 H   0  0  0  0  0  0  0  0  0  0  0  0
  129.5265  135.4640  161.7345 H   0  0  0  0  0  0  0  0  0  0  0  0
  127.9700  132.7507  160.7536 H   0  0  0  0  0  0  0  0  0  0  0  0
  127.5993  133.3515  162.3899 H   0  0  0  0  0  0  0  0  0  0  0  0
  125.6960  133.0895  160.0237 H   0  0  0  0  0  0  0  0  0  0  0  0
  125.6056  132.2463  161.5878 H   0  0  0  0  0  0  0  0  0  0  0  0
  124.9437  136.1807  162.2755 H   0  0  0  0  0  0  0  0  0  0  0  0
  127.4387  135.8322  162.7908 H   0  0  0  0  0  0  0  0  0  0  0  0
  127.0382  136.8714  161.4073 H   0  0  0  0  0  0  0  0  0  0  0  0
  134.3034  134.3257  162.9515 H   0  0  0  0  0  0  0  0  0  0  0  0
  135.3377  135.1863  165.0117 H   0  0  0  0  0  0  0  0  0  0  0  0
  133.1985  137.1717  166.8173 H   0  0  0  0  0  0  0  0  0  0  0  0
  131.3997  138.5204  167.8176 H   0  0  0  0  0  0  0  0  0  0  0  0
  1  2  1  0
  1 38  1  0
  1 39  1  0
  1 40  1  0
  2  3  1  0
  2 41  1  0
  2 42  1  0
  3 37  2  0
  3  4  1  0
  4  5  2  0
  4 43  1  0
  5  6  1  0
  5 44  1  0
  6  7  1  0
  6 36  2  0
  7  8  1  0
  8 35  1  0
  8  9  2  0
  9 10  1  0
  9 45  1  0
 10 11  2  0
 10 46  1  0
 11 12  1  0
 11 34  1  0
 12 13  1  0
 12 47  1  0
 12 48  1  0
 13 14  1  0
 13 49  1  0
 13 50  1  0
 14 15  1  0
 16 14  2  0
 16 17  1  0
 16 25  1  0
 17 18  1  0
 17 51  1  0
 18 24  1  0
 18 19  1  0
 18 52  1  0
 19 20  1  0
 19 53  1  0
 19 54  1  0
 20 21  1  0
 20 55  1  0
 20 56  1  0
 21 22  1  0
 21 57  1  0
 21 58  1  0
 22 23  1  0
 22 59  1  0
 22 60  1  0
 23 24  1  0
 23 61  1  0
 23 62  1  0
 24 63  1  0
 24 64  1  0
 25 26  1  0
 25 65  1  0
 26 27  1  6
 26 33  1  0
 26 28  1  0
 28 29  1  0
 28 66  1  0
 28 67  1  0
 29 30  1  0
 29 68  1  0
 29 69  1  0
 30 31  2  0
 30 32  1  0
 32 33  1  0
 32 70  1  0
 33 71  1  0
 33 72  1  0
 34 35  2  0
 34 73  1  0
 35 74  1  0
 36 37  1  0
 36 75  1  0
 37 76  1  0
M  CHG  1  14   1
M  END
>  <DOCK_score>  (1) 
-47.703384

>  <SMILES>  (1) 
CCc1ccc(Sc2ccc(CC[NH+]=C(NC3CCCCCC3)N[C@H]3CCC(=O)NC3)cc2)cc1

$$$$
