Cn1nccc1C(c1ccccc1)[C@H](Nc1[nH]cc(-c2ccc(N)cc2)[nH+]1)c1ccnn1C
     RDKit          3D

 60 64  0  0  1  0  0  0  0  0999 V2000
  131.8286  138.7695  159.3120 C   0  0  0  0  0  0  0  0  0  0  0  0
  132.3111  137.7464  160.2428 N   0  0  0  0  0  0  0  0  0  0  0  0
  133.6463  137.5242  160.6033 N   0  0  0  0  0  0  0  0  0  0  0  0
  133.6808  136.5260  161.4485 C   0  0  0  0  0  0  0  0  0  0  0  0
  132.3702  136.0846  161.6569 C   0  0  0  0  0  0  0  0  0  0  0  0
  131.5476  136.8534  160.9065 C   0  0  0  0  0  0  0  0  0  0  0  0
  130.0479  136.7301  160.8221 C   0  0  2  0  0  0  0  0  0  0  0  0
  129.4487  136.9433  162.1883 C   0  0  0  0  0  0  0  0  0  0  0  0
  129.0952  138.2156  162.5972 C   0  0  0  0  0  0  0  0  0  0  0  0
  128.5410  138.4105  163.8485 C   0  0  0  0  0  0  0  0  0  0  0  0
  128.3497  137.3351  164.6948 C   0  0  0  0  0  0  0  0  0  0  0  0
  128.7087  136.0629  164.2883 C   0  0  0  0  0  0  0  0  0  0  0  0
  129.2579  135.8674  163.0349 C   0  0  0  0  0  0  0  0  0  0  0  0
  129.6786  135.3346  160.3153 C   0  0  2  0  0  0  0  0  0  0  0  0
  130.0667  134.5836  161.0035 H   0  0  0  0  0  0  0  0  0  0  0  0
  130.2612  135.1274  158.9871 N   0  0  0  0  0  0  0  0  0  0  0  0
  130.0609  133.9294  158.3226 C   0  0  0  0  0  0  0  0  0  0  0  0
  129.3409  132.8741  158.7910 N   0  0  0  0  0  0  0  0  0  0  0  0
  128.8799  132.8258  159.6431 H   0  0  0  0  0  0  0  0  0  0  0  0
  129.3881  131.8887  157.8334 C   0  0  0  0  0  0  0  0  0  0  0  0
  130.1347  132.3708  156.8094 C   0  0  0  0  0  0  0  0  0  0  0  0
  130.4589  131.6534  155.5520 C   0  0  0  0  0  0  0  0  0  0  0  0
  130.0598  132.1805  154.3248 C   0  0  0  0  0  0  0  0  0  0  0  0
  130.3668  131.5146  153.1570 C   0  0  0  0  0  0  0  0  0  0  0  0
  131.0634  130.3133  153.2034 C   0  0  0  0  0  0  0  0  0  0  0  0
  131.3681  129.6376  152.0193 N   0  0  0  0  0  0  0  0  0  0  0  0
  131.4578  129.7828  154.4264 C   0  0  0  0  0  0  0  0  0  0  0  0
  131.1581  130.4482  155.5964 C   0  0  0  0  0  0  0  0  0  0  0  0
  130.5288  133.6272  157.1361 N   0  0  0  0  0  0  0  0  0  0  0  0
  131.0722  134.2081  156.5811 H   0  0  0  0  0  0  0  0  0  0  0  0
  128.1791  135.2115  160.2308 C   0  0  0  0  0  0  0  0  0  0  0  0
  127.3570  135.9766  159.4757 C   0  0  0  0  0  0  0  0  0  0  0  0
  126.0464  135.5346  159.6834 C   0  0  0  0  0  0  0  0  0  0  0  0
  126.0795  134.5450  160.5387 N   0  0  0  0  0  0  0  0  0  0  0  0
  127.4148  134.3223  160.8988 N   0  0  0  0  0  0  0  0  0  0  0  0
  127.8965  133.3043  161.8357 C   0  0  0  0  0  0  0  0  0  0  0  0
  131.6110  139.6861  159.8604 H   0  0  0  0  0  0  0  0  0  0  0  0
  132.5937  138.9680  158.5616 H   0  0  0  0  0  0  0  0  0  0  0  0
  130.9217  138.4158  158.8214 H   0  0  0  0  0  0  0  0  0  0  0  0
  134.5682  136.1138  161.9058 H   0  0  0  0  0  0  0  0  0  0  0  0
  132.0681  135.2731  162.3024 H   0  0  0  0  0  0  0  0  0  0  0  0
  129.6599  137.4811  160.1339 H   0  0  0  0  0  0  0  0  0  0  0  0
  129.2483  139.0569  161.9375 H   0  0  0  0  0  0  0  0  0  0  0  0
  128.2614  139.4040  164.1665 H   0  0  0  0  0  0  0  0  0  0  0  0
  127.9215  137.4872  165.6744 H   0  0  0  0  0  0  0  0  0  0  0  0
  128.5600  135.2222  164.9499 H   0  0  0  0  0  0  0  0  0  0  0  0
  129.5384  134.8739  162.7173 H   0  0  0  0  0  0  0  0  0  0  0  0
  130.7873  135.8295  158.5735 H   0  0  0  0  0  0  0  0  0  0  0  0
  128.9201  130.9168  157.8867 H   0  0  0  0  0  0  0  0  0  0  0  0
  129.5141  133.1118  154.2885 H   0  0  0  0  0  0  0  0  0  0  0  0
  130.0616  131.9247  152.2057 H   0  0  0  0  0  0  0  0  0  0  0  0
  131.8549  128.7984  152.0514 H   0  0  0  0  0  0  0  0  0  0  0  0
  131.0934  130.0062  151.1658 H   0  0  0  0  0  0  0  0  0  0  0  0
  131.9991  128.8488  154.4603 H   0  0  0  0  0  0  0  0  0  0  0  0
  131.4649  130.0361  156.5464 H   0  0  0  0  0  0  0  0  0  0  0  0
  127.6597  136.7842  158.8258 H   0  0  0  0  0  0  0  0  0  0  0  0
  125.1597  135.9424  159.2209 H   0  0  0  0  0  0  0  0  0  0  0  0
  127.9177  133.7189  162.8436 H   0  0  0  0  0  0  0  0  0  0  0  0
  127.2290  132.4430  161.8112 H   0  0  0  0  0  0  0  0  0  0  0  0
  128.9013  132.9935  161.5496 H   0  0  0  0  0  0  0  0  0  0  0  0
  1  2  1  0
  1 37  1  0
  1 38  1  0
  1 39  1  0
  2  6  1  0
  2  3  1  0
  3  4  2  0
  4  5  1  0
  4 40  1  0
  5  6  2  0
  5 41  1  0
  6  7  1  0
  7  8  1  0
  7 14  1  0
  7 42  1  6
  8 13  1  0
  8  9  2  0
  9 10  1  0
  9 43  1  0
 10 11  2  0
 10 44  1  0
 11 12  1  0
 11 45  1  0
 12 13  2  0
 12 46  1  0
 13 47  1  0
 14 15  1  1
 14 16  1  0
 14 31  1  0
 16 48  1  0
 17 16  1  0
 17 29  2  0
 17 18  1  0
 18 19  1  0
 18 20  1  0
 20 21  2  0
 20 49  1  0
 21 22  1  0
 21 29  1  0
 22 28  1  0
 22 23  2  0
 23 24  1  0
 23 50  1  0
 24 25  2  0
 24 51  1  0
 25 26  1  0
 25 27  1  0
 26 52  1  0
 26 53  1  0
 27 28  2  0
 27 54  1  0
 28 55  1  0
 29 30  1  0
 31 35  1  0
 31 32  2  0
 32 33  1  0
 32 56  1  0
 33 34  2  0
 33 57  1  0
 34 35  1  0
 35 36  1  0
 36 58  1  0
 36 59  1  0
 36 60  1  0
M  CHG  1  29   1
M  END
>  <DOCK_score>  (1) 
-61.982685

>  <SMILES>  (1) 
Cn1nccc1C(c1ccccc1)[C@H](Nc1[nH]cc(-c2ccc(N)cc2)[nH+]1)c1ccnn1C

$$$$
