Nc1ccc(-c2c[nH]c(N[C@@H](C=CCc3ccc(Cl)cc3)Cc3ccccc3)[nH+]2)cc1
     RDKit          3D

 57 60  0  0  1  0  0  0  0  0999 V2000
  131.1104  129.8429  153.0885 N   0  0  0  0  0  0  0  0  0  0  0  0
  131.0308  130.5932  154.2643 C   0  0  0  0  0  0  0  0  0  0  0  0
  130.6444  131.9273  154.2112 C   0  0  0  0  0  0  0  0  0  0  0  0
  130.5652  132.6697  155.3705 C   0  0  0  0  0  0  0  0  0  0  0  0
  130.8728  132.0814  156.5962 C   0  0  0  0  0  0  0  0  0  0  0  0
  130.7882  132.8782  157.8447 C   0  0  0  0  0  0  0  0  0  0  0  0
  130.4874  132.4004  159.0775 C   0  0  0  0  0  0  0  0  0  0  0  0
  130.5193  133.4714  159.9389 N   0  0  0  0  0  0  0  0  0  0  0  0
  130.3463  133.4467  160.8930 H   0  0  0  0  0  0  0  0  0  0  0  0
  130.8390  134.5722  159.2058 C   0  0  0  0  0  0  0  0  0  0  0  0
  130.9734  135.8587  159.6994 N   0  0  0  0  0  0  0  0  0  0  0  0
  130.1874  136.2835  160.8604 C   0  0  1  0  0  0  0  0  0  0  0  0
  130.1433  135.4714  161.5863 H   0  0  0  0  0  0  0  0  0  0  0  0
  130.8361  137.4877  161.4929 C   0  0  0  0  0  0  0  0  0  0  0  0
  132.0605  137.4066  161.9520 C   0  0  0  0  0  0  0  0  0  0  0  0
  132.7093  138.6109  162.5844 C   0  0  0  0  0  0  0  0  0  0  0  0
  133.9503  138.9766  161.8116 C   0  0  0  0  0  0  0  0  0  0  0  0
  135.1700  138.4295  162.1639 C   0  0  0  0  0  0  0  0  0  0  0  0
  136.3075  138.7602  161.4521 C   0  0  0  0  0  0  0  0  0  0  0  0
  136.2274  139.6478  160.3939 C   0  0  0  0  0  0  0  0  0  0  0  0
  137.6570  140.0696  159.5040 Cl  0  0  0  0  0  0  0  0  0  0  0  0
  135.0074  140.1993  160.0452 C   0  0  0  0  0  0  0  0  0  0  0  0
  133.8696  139.8635  160.7543 C   0  0  0  0  0  0  0  0  0  0  0  0
  128.7698  136.6445  160.4121 C   0  0  0  0  0  0  0  0  0  0  0  0
  127.9602  135.3846  160.2429 C   0  0  0  0  0  0  0  0  0  0  0  0
  127.9333  134.7393  159.0208 C   0  0  0  0  0  0  0  0  0  0  0  0
  127.1911  133.5835  158.8657 C   0  0  0  0  0  0  0  0  0  0  0  0
  126.4763  133.0726  159.9328 C   0  0  0  0  0  0  0  0  0  0  0  0
  126.4989  133.7209  161.1535 C   0  0  0  0  0  0  0  0  0  0  0  0
  127.2443  134.8745  161.3098 C   0  0  0  0  0  0  0  0  0  0  0  0
  130.9934  134.2148  157.9541 N   0  0  0  0  0  0  0  0  0  0  0  0
  131.2203  134.8106  157.2231 H   0  0  0  0  0  0  0  0  0  0  0  0
  131.2656  130.7449  156.6464 C   0  0  0  0  0  0  0  0  0  0  0  0
  131.3376  130.0045  155.4853 C   0  0  0  0  0  0  0  0  0  0  0  0
  130.8961  130.2531  152.2361 H   0  0  0  0  0  0  0  0  0  0  0  0
  131.3799  128.9118  153.1248 H   0  0  0  0  0  0  0  0  0  0  0  0
  130.4065  132.3827  153.2614 H   0  0  0  0  0  0  0  0  0  0  0  0
  130.2646  133.7062  155.3288 H   0  0  0  0  0  0  0  0  0  0  0  0
  130.2649  131.3750  159.3335 H   0  0  0  0  0  0  0  0  0  0  0  0
  131.5879  136.4787  159.2766 H   0  0  0  0  0  0  0  0  0  0  0  0
  130.2919  138.4175  161.5676 H   0  0  0  0  0  0  0  0  0  0  0  0
  132.6048  136.4769  161.8772 H   0  0  0  0  0  0  0  0  0  0  0  0
  132.0123  139.4488  162.5699 H   0  0  0  0  0  0  0  0  0  0  0  0
  132.9781  138.3794  163.6151 H   0  0  0  0  0  0  0  0  0  0  0  0
  135.2332  137.7401  162.9930 H   0  0  0  0  0  0  0  0  0  0  0  0
  137.2596  138.3294  161.7247 H   0  0  0  0  0  0  0  0  0  0  0  0
  134.9443  140.8925  159.2195 H   0  0  0  0  0  0  0  0  0  0  0  0
  132.9172  140.2943  160.4825 H   0  0  0  0  0  0  0  0  0  0  0  0
  128.8138  137.1783  159.4628 H   0  0  0  0  0  0  0  0  0  0  0  0
  128.3013  137.2791  161.1644 H   0  0  0  0  0  0  0  0  0  0  0  0
  128.4924  135.1380  158.1870 H   0  0  0  0  0  0  0  0  0  0  0  0
  127.1701  133.0793  157.9107 H   0  0  0  0  0  0  0  0  0  0  0  0
  125.8965  132.1696  159.8116 H   0  0  0  0  0  0  0  0  0  0  0  0
  125.9369  133.3243  161.9861 H   0  0  0  0  0  0  0  0  0  0  0  0
  127.2651  135.3789  162.2645 H   0  0  0  0  0  0  0  0  0  0  0  0
  131.5088  130.2882  157.5945 H   0  0  0  0  0  0  0  0  0  0  0  0
  131.6369  128.9674  155.5243 H   0  0  0  0  0  0  0  0  0  0  0  0
  1  2  1  0
  1 35  1  0
  1 36  1  0
  2 34  2  0
  2  3  1  0
  3  4  2  0
  3 37  1  0
  4  5  1  0
  4 38  1  0
  5  6  1  0
  5 33  2  0
  6 31  1  0
  6  7  2  0
  7  8  1  0
  7 39  1  0
  8  9  1  0
  8 10  1  0
 10 11  1  0
 10 31  2  0
 11 12  1  0
 11 40  1  0
 12 13  1  1
 12 14  1  0
 12 24  1  0
 14 15  2  0
 14 41  1  0
 15 16  1  0
 15 42  1  0
 16 17  1  0
 16 43  1  0
 16 44  1  0
 17 23  1  0
 17 18  2  0
 18 19  1  0
 18 45  1  0
 19 20  2  0
 19 46  1  0
 20 21  1  0
 20 22  1  0
 22 23  2  0
 22 47  1  0
 23 48  1  0
 24 25  1  0
 24 49  1  0
 24 50  1  0
 25 30  1  0
 25 26  2  0
 26 27  1  0
 26 51  1  0
 27 28  2  0
 27 52  1  0
 28 29  1  0
 28 53  1  0
 29 30  2  0
 29 54  1  0
 30 55  1  0
 31 32  1  0
 33 34  1  0
 33 56  1  0
 34 57  1  0
M  CHG  1  31   1
M  END
>  <DOCK_score>  (1) 
-59.426983

>  <SMILES>  (1) 
Nc1ccc(-c2c[nH]c(N[C@@H](C=CCc3ccc(Cl)cc3)Cc3ccccc3)[nH+]2)cc1

$$$$
