CCc1ccc(-c2c[nH]c(N[C@H](CC=C3C=CCCC3)CCCl)[nH+]2)cc1
     RDKit          3D

 55 57  0  0  1  0  0  0  0  0999 V2000
  130.0570  128.4715  151.6693 C   0  0  0  0  0  0  0  0  0  0  0  0
  131.1186  129.5616  151.8284 C   0  0  0  0  0  0  0  0  0  0  0  0
  130.9127  130.2757  153.1394 C   0  0  0  0  0  0  0  0  0  0  0  0
  131.5447  129.8156  154.2812 C   0  0  0  0  0  0  0  0  0  0  0  0
  131.3636  130.4685  155.4835 C   0  0  0  0  0  0  0  0  0  0  0  0
  130.5343  131.5867  155.5483 C   0  0  0  0  0  0  0  0  0  0  0  0
  130.3317  132.2896  156.8387 C   0  0  0  0  0  0  0  0  0  0  0  0
  129.8199  131.7471  157.9712 C   0  0  0  0  0  0  0  0  0  0  0  0
  129.8093  132.7408  158.9197 N   0  0  0  0  0  0  0  0  0  0  0  0
  129.4981  132.6582  159.8348 H   0  0  0  0  0  0  0  0  0  0  0  0
  130.3155  133.8624  158.3385 C   0  0  0  0  0  0  0  0  0  0  0  0
  130.4747  135.0900  158.9583 N   0  0  0  0  0  0  0  0  0  0  0  0
  130.0832  135.2594  160.3597 C   0  0  2  0  0  0  0  0  0  0  0  0
  129.1523  134.7231  160.5443 H   0  0  0  0  0  0  0  0  0  0  0  0
  129.8824  136.7467  160.6570 C   0  0  0  0  0  0  0  0  0  0  0  0
  131.1694  137.4880  160.4020 C   0  0  0  0  0  0  0  0  0  0  0  0
  131.4559  138.5813  161.1006 C   0  0  0  0  0  0  0  0  0  0  0  0
  130.5961  139.0222  162.2156 C   0  0  0  0  0  0  0  0  0  0  0  0
  131.0037  139.9697  163.0433 C   0  0  0  0  0  0  0  0  0  0  0  0
  132.3234  140.6689  162.9084 C   0  0  0  0  0  0  0  0  0  0  0  0
  133.3170  139.8257  162.1108 C   0  0  0  0  0  0  0  0  0  0  0  0
  132.6738  139.4224  160.7762 C   0  0  0  0  0  0  0  0  0  0  0  0
  131.1815  134.7016  161.2672 C   0  0  0  0  0  0  0  0  0  0  0  0
  130.7724  134.8785  162.7308 C   0  0  0  0  0  0  0  0  0  0  0  0
  129.2327  133.9916  163.0360 Cl  0  0  0  0  0  0  0  0  0  0  0  0
  130.6312  133.5876  157.0965 N   0  0  0  0  0  0  0  0  0  0  0  0
  131.0157  134.2127  156.4623 H   0  0  0  0  0  0  0  0  0  0  0  0
  129.8964  132.0424  154.3959 C   0  0  0  0  0  0  0  0  0  0  0  0
  130.0889  131.3848  153.1979 C   0  0  0  0  0  0  0  0  0  0  0  0
  129.0660  128.9250  151.6842 H   0  0  0  0  0  0  0  0  0  0  0  0
  130.2059  127.9550  150.7211 H   0  0  0  0  0  0  0  0  0  0  0  0
  130.1426  127.7581  152.4890 H   0  0  0  0  0  0  0  0  0  0  0  0
  132.1101  129.1079  151.8137 H   0  0  0  0  0  0  0  0  0  0  0  0
  131.0334  130.2747  151.0088 H   0  0  0  0  0  0  0  0  0  0  0  0
  132.1836  128.9464  154.2307 H   0  0  0  0  0  0  0  0  0  0  0  0
  131.8607  130.1112  156.3734 H   0  0  0  0  0  0  0  0  0  0  0  0
  129.4845  130.7290  158.1023 H   0  0  0  0  0  0  0  0  0  0  0  0
  130.8457  135.8381  158.4645 H   0  0  0  0  0  0  0  0  0  0  0  0
  129.1000  137.1441  160.0106 H   0  0  0  0  0  0  0  0  0  0  0  0
  129.5911  136.8727  161.6998 H   0  0  0  0  0  0  0  0  0  0  0  0
  131.8588  137.1307  159.6515 H   0  0  0  0  0  0  0  0  0  0  0  0
  129.6286  138.5643  162.3590 H   0  0  0  0  0  0  0  0  0  0  0  0
  130.3511  140.2575  163.8543 H   0  0  0  0  0  0  0  0  0  0  0  0
  132.7312  140.8571  163.9016 H   0  0  0  0  0  0  0  0  0  0  0  0
  132.1730  141.6207  162.3988 H   0  0  0  0  0  0  0  0  0  0  0  0
  133.5728  138.9304  162.6776 H   0  0  0  0  0  0  0  0  0  0  0  0
  134.2194  140.4065  161.9200 H   0  0  0  0  0  0  0  0  0  0  0  0
  133.3802  138.8398  160.1848 H   0  0  0  0  0  0  0  0  0  0  0  0
  132.3733  140.3127  160.2238 H   0  0  0  0  0  0  0  0  0  0  0  0
  131.3245  133.6420  161.0555 H   0  0  0  0  0  0  0  0  0  0  0  0
  132.1124  135.2378  161.0827 H   0  0  0  0  0  0  0  0  0  0  0  0
  131.5549  134.4811  163.3775 H   0  0  0  0  0  0  0  0  0  0  0  0
  130.6295  135.9382  162.9426 H   0  0  0  0  0  0  0  0  0  0  0  0
  129.2523  132.9083  154.4404 H   0  0  0  0  0  0  0  0  0  0  0  0
  129.5949  131.7369  152.3044 H   0  0  0  0  0  0  0  0  0  0  0  0
  1  2  1  0
  1 30  1  0
  1 31  1  0
  1 32  1  0
  2  3  1  0
  2 33  1  0
  2 34  1  0
  3 29  2  0
  3  4  1  0
  4  5  2  0
  4 35  1  0
  5  6  1  0
  5 36  1  0
  6  7  1  0
  6 28  2  0
  7 26  1  0
  7  8  2  0
  8  9  1  0
  8 37  1  0
  9 10  1  0
  9 11  1  0
 11 12  1  0
 11 26  2  0
 12 13  1  0
 12 38  1  0
 13 14  1  6
 13 15  1  0
 13 23  1  0
 15 16  1  0
 15 39  1  0
 15 40  1  0
 16 17  2  0
 16 41  1  0
 17 22  1  0
 17 18  1  0
 18 19  2  0
 18 42  1  0
 19 20  1  0
 19 43  1  0
 20 21  1  0
 20 44  1  0
 20 45  1  0
 21 22  1  0
 21 46  1  0
 21 47  1  0
 22 48  1  0
 22 49  1  0
 23 24  1  0
 23 50  1  0
 23 51  1  0
 24 25  1  0
 24 52  1  0
 24 53  1  0
 26 27  1  0
 28 29  1  0
 28 54  1  0
 29 55  1  0
M  CHG  1  26   1
M  END
>  <DOCK_score>  (1) 
-56.582386

>  <SMILES>  (1) 
CCc1ccc(-c2c[nH]c(N[C@H](CC=C3C=CCCC3)CCCl)[nH+]2)cc1

$$$$
