c1ccc(CC[C@@H](Cc2ccccc2)Nc2[nH]cc(C3CC3)[nH+]2)cc1
     RDKit          3D

 51 54  0  0  1  0  0  0  0  0999 V2000
  136.6793  140.3219  161.2774 C   0  0  0  0  0  0  0  0  0  0  0  0
  136.5246  139.9267  159.9619 C   0  0  0  0  0  0  0  0  0  0  0  0
  135.3722  139.2729  159.5675 C   0  0  0  0  0  0  0  0  0  0  0  0
  134.3745  139.0144  160.4888 C   0  0  0  0  0  0  0  0  0  0  0  0
  133.1180  138.3021  160.0588 C   0  0  0  0  0  0  0  0  0  0  0  0
  132.5562  137.5033  161.2366 C   0  0  0  0  0  0  0  0  0  0  0  0
  131.2804  136.7802  160.8001 C   0  0  1  0  0  0  0  0  0  0  0  0
  130.8801  136.2112  161.6391 H   0  0  0  0  0  0  0  0  0  0  0  0
  130.2440  137.8075  160.3398 C   0  0  0  0  0  0  0  0  0  0  0  0
  128.9873  137.0953  159.9098 C   0  0  0  0  0  0  0  0  0  0  0  0
  128.8330  136.7000  158.5937 C   0  0  0  0  0  0  0  0  0  0  0  0
  127.6826  136.0424  158.2001 C   0  0  0  0  0  0  0  0  0  0  0  0
  126.6823  135.7890  159.1199 C   0  0  0  0  0  0  0  0  0  0  0  0
  126.8347  136.1885  160.4345 C   0  0  0  0  0  0  0  0  0  0  0  0
  127.9874  136.8416  160.8291 C   0  0  0  0  0  0  0  0  0  0  0  0
  131.5894  135.8692  159.6953 N   0  0  0  0  0  0  0  0  0  0  0  0
  131.3576  134.5106  159.8324 C   0  0  0  0  0  0  0  0  0  0  0  0
  130.8548  133.8971  160.9375 N   0  0  0  0  0  0  0  0  0  0  0  0
  130.5943  134.3262  161.7673 H   0  0  0  0  0  0  0  0  0  0  0  0
  130.7831  132.5519  160.6537 C   0  0  0  0  0  0  0  0  0  0  0  0
  131.2466  132.3901  159.4028 C   0  0  0  0  0  0  0  0  0  0  0  0
  131.3611  131.0802  158.6666 C   0  0  0  0  0  0  0  0  0  0  0  0
  130.7471  131.0002  157.2676 C   0  0  0  0  0  0  0  0  0  0  0  0
  130.0755  130.2824  158.4400 C   0  0  0  0  0  0  0  0  0  0  0  0
  131.5912  133.5964  158.9208 N   0  0  0  0  0  0  0  0  0  0  0  0
  131.9550  133.7648  158.0375 H   0  0  0  0  0  0  0  0  0  0  0  0
  134.5270  139.4143  161.8032 C   0  0  0  0  0  0  0  0  0  0  0  0
  135.6816  140.0634  162.1987 C   0  0  0  0  0  0  0  0  0  0  0  0
  137.5795  140.8330  161.5854 H   0  0  0  0  0  0  0  0  0  0  0  0
  137.3039  140.1290  159.2421 H   0  0  0  0  0  0  0  0  0  0  0  0
  135.2512  138.9645  158.5396 H   0  0  0  0  0  0  0  0  0  0  0  0
  133.3478  137.6243  159.2367 H   0  0  0  0  0  0  0  0  0  0  0  0
  132.3797  139.0338  159.7309 H   0  0  0  0  0  0  0  0  0  0  0  0
  133.2944  136.7717  161.5646 H   0  0  0  0  0  0  0  0  0  0  0  0
  132.3264  138.1812  162.0587 H   0  0  0  0  0  0  0  0  0  0  0  0
  130.0141  138.4850  161.1617 H   0  0  0  0  0  0  0  0  0  0  0  0
  130.6446  138.3764  159.5005 H   0  0  0  0  0  0  0  0  0  0  0  0
  129.6126  136.9020  157.8740 H   0  0  0  0  0  0  0  0  0  0  0  0
  127.5635  135.7306  157.1730 H   0  0  0  0  0  0  0  0  0  0  0  0
  125.7816  135.2791  158.8114 H   0  0  0  0  0  0  0  0  0  0  0  0
  126.0530  135.9908  161.1530 H   0  0  0  0  0  0  0  0  0  0  0  0
  128.1063  137.1541  161.8561 H   0  0  0  0  0  0  0  0  0  0  0  0
  131.9562  136.2174  158.8675 H   0  0  0  0  0  0  0  0  0  0  0  0
  130.4264  131.7740  161.3127 H   0  0  0  0  0  0  0  0  0  0  0  0
  132.2772  130.5179  158.8474 H   0  0  0  0  0  0  0  0  0  0  0  0
  130.2602  131.8949  156.8795 H   0  0  0  0  0  0  0  0  0  0  0  0
  131.2592  130.3850  156.5276 H   0  0  0  0  0  0  0  0  0  0  0  0
  130.1457  129.1951  158.4715 H   0  0  0  0  0  0  0  0  0  0  0  0
  129.1467  130.7050  158.8234 H   0  0  0  0  0  0  0  0  0  0  0  0
  133.7457  139.2162  162.5220 H   0  0  0  0  0  0  0  0  0  0  0  0
  135.8023  140.3725  163.2265 H   0  0  0  0  0  0  0  0  0  0  0  0
  1 28  2  0
  1  2  1  0
  1 29  1  0
  2  3  2  0
  2 30  1  0
  3  4  1  0
  3 31  1  0
  4  5  1  0
  4 27  2  0
  5  6  1  0
  5 32  1  0
  5 33  1  0
  6  7  1  0
  6 34  1  0
  6 35  1  0
  7  8  1  1
  7  9  1  0
  7 16  1  0
  9 10  1  0
  9 36  1  0
  9 37  1  0
 10 15  1  0
 10 11  2  0
 11 12  1  0
 11 38  1  0
 12 13  2  0
 12 39  1  0
 13 14  1  0
 13 40  1  0
 14 15  2  0
 14 41  1  0
 15 42  1  0
 16 43  1  0
 17 16  1  0
 17 25  2  0
 17 18  1  0
 18 19  1  0
 18 20  1  0
 20 21  2  0
 20 44  1  0
 21 22  1  0
 21 25  1  0
 22 24  1  0
 22 23  1  0
 22 45  1  0
 23 24  1  0
 23 46  1  0
 23 47  1  0
 24 48  1  0
 24 49  1  0
 25 26  1  0
 27 28  1  0
 27 50  1  0
 28 51  1  0
M  CHG  1  25   1
M  END
>  <DOCK_score>  (1) 
-56.433861

>  <SMILES>  (1) 
c1ccc(CC[C@@H](Cc2ccccc2)Nc2[nH]cc(C3CC3)[nH+]2)cc1

$$$$
