Cn1cc(C(Nc2ccc(C(=O)N[C@H]3CC[NH2+]C4(CC4)C3)c(C(F)F)c2)c2cnn(C)c2)cn1
     RDKit          3D

 64 68  0  0  1  0  0  0  0  0999 V2000
  126.1187  143.2094  169.9675 C   0  0  0  0  0  0  0  0  0  0  0  0
  126.5106  143.1664  168.5565 N   0  0  0  0  0  0  0  0  0  0  0  0
  126.9080  142.0711  167.8758 C   0  0  0  0  0  0  0  0  0  0  0  0
  127.1803  142.4508  166.6059 C   0  0  0  0  0  0  0  0  0  0  0  0
  127.6570  141.5517  165.4945 C   0  0  0  0  0  0  0  0  0  0  0  0
  126.6640  140.5013  165.2563 N   0  0  0  0  0  0  0  0  0  0  0  0
  126.8861  139.5459  164.2707 C   0  0  0  0  0  0  0  0  0  0  0  0
  127.6335  139.8721  163.1426 C   0  0  0  0  0  0  0  0  0  0  0  0
  127.8587  138.9274  162.1678 C   0  0  0  0  0  0  0  0  0  0  0  0
  127.3252  137.6424  162.3053 C   0  0  0  0  0  0  0  0  0  0  0  0
  127.5592  136.6291  161.2590 C   0  0  0  0  0  0  0  0  0  0  0  0
  126.6171  136.1305  160.6740 O   0  0  0  0  0  0  0  0  0  0  0  0
  128.8172  136.2562  160.9514 N   0  0  0  0  0  0  0  0  0  0  0  0
  129.0498  135.2500  159.9123 C   0  0  1  0  0  0  0  0  0  0  0  0
  128.2068  134.5598  159.8778 H   0  0  0  0  0  0  0  0  0  0  0  0
  129.2026  135.9398  158.5540 C   0  0  0  0  0  0  0  0  0  0  0  0
  129.4515  134.8894  157.4707 C   0  0  0  0  0  0  0  0  0  0  0  0
  130.7165  134.1918  157.7382 N   0  0  0  0  0  0  0  0  0  0  0  0
  131.4753  134.8569  157.7330 H   0  0  0  0  0  0  0  0  0  0  0  0
  130.8741  133.4951  157.0256 H   0  0  0  0  0  0  0  0  0  0  0  0
  130.6442  133.5404  159.0534 C   0  0  0  0  0  0  0  0  0  0  0  0
  130.0818  132.1199  159.1123 C   0  0  0  0  0  0  0  0  0  0  0  0
  131.5794  132.3599  159.3150 C   0  0  0  0  0  0  0  0  0  0  0  0
  130.3344  134.4751  160.2268 C   0  0  0  0  0  0  0  0  0  0  0  0
  126.5745  137.3180  163.4389 C   0  0  0  0  0  0  0  0  0  0  0  0
  126.0026  135.9324  163.5937 C   0  0  0  0  0  0  0  0  0  0  0  0
  127.0424  134.9966  163.5984 F   0  0  0  0  0  0  0  0  0  0  0  0
  125.2968  135.8513  164.7990 F   0  0  0  0  0  0  0  0  0  0  0  0
  126.3580  138.2656  164.4134 C   0  0  0  0  0  0  0  0  0  0  0  0
  128.9696  140.9227  165.8853 C   0  0  0  0  0  0  0  0  0  0  0  0
  130.2412  141.4481  165.6336 C   0  0  0  0  0  0  0  0  0  0  0  0
  131.1292  140.6223  166.1248 N   0  0  0  0  0  0  0  0  0  0  0  0
  130.4500  139.5387  166.6966 N   0  0  0  0  0  0  0  0  0  0  0  0
  131.0677  138.3833  167.3521 C   0  0  0  0  0  0  0  0  0  0  0  0
  129.1264  139.7470  166.5365 C   0  0  0  0  0  0  0  0  0  0  0  0
  126.9470  143.8266  166.5086 C   0  0  0  0  0  0  0  0  0  0  0  0
  126.5397  144.2555  167.6757 N   0  0  0  0  0  0  0  0  0  0  0  0
  126.9962  143.4090  170.5824 H   0  0  0  0  0  0  0  0  0  0  0  0
  125.3832  144.0001  170.1163 H   0  0  0  0  0  0  0  0  0  0  0  0
  125.6848  142.2512  170.2533 H   0  0  0  0  0  0  0  0  0  0  0  0
  126.9937  141.0706  168.2735 H   0  0  0  0  0  0  0  0  0  0  0  0
  127.7913  142.1376  164.5853 H   0  0  0  0  0  0  0  0  0  0  0  0
  125.8521  140.4722  165.7863 H   0  0  0  0  0  0  0  0  0  0  0  0
  128.0412  140.8663  163.0347 H   0  0  0  0  0  0  0  0  0  0  0  0
  128.4428  139.1797  161.2952 H   0  0  0  0  0  0  0  0  0  0  0  0
  129.5689  136.6539  161.4181 H   0  0  0  0  0  0  0  0  0  0  0  0
  128.2914  136.4913  158.3224 H   0  0  0  0  0  0  0  0  0  0  0  0
  130.0451  136.6304  158.5905 H   0  0  0  0  0  0  0  0  0  0  0  0
  129.5054  135.3777  156.4977 H   0  0  0  0  0  0  0  0  0  0  0  0
  128.6334  134.1692  157.4701 H   0  0  0  0  0  0  0  0  0  0  0  0
  129.4926  131.8478  159.9881 H   0  0  0  0  0  0  0  0  0  0  0  0
  129.7676  131.6635  158.1737 H   0  0  0  0  0  0  0  0  0  0  0  0
  132.2505  132.0614  158.5096 H   0  0  0  0  0  0  0  0  0  0  0  0
  131.9758  132.2458  160.3239 H   0  0  0  0  0  0  0  0  0  0  0  0
  131.1589  135.1747  160.3645 H   0  0  0  0  0  0  0  0  0  0  0  0
  130.1944  133.8882  161.1346 H   0  0  0  0  0  0  0  0  0  0  0  0
  125.3286  135.7226  162.7633 H   0  0  0  0  0  0  0  0  0  0  0  0
  125.7781  138.0156  165.2895 H   0  0  0  0  0  0  0  0  0  0  0  0
  130.4532  142.3767  165.1245 H   0  0  0  0  0  0  0  0  0  0  0  0
  131.2520  137.6025  166.6142 H   0  0  0  0  0  0  0  0  0  0  0  0
  132.0119  138.6846  167.8057 H   0  0  0  0  0  0  0  0  0  0  0  0
  130.3988  138.0030  168.1241 H   0  0  0  0  0  0  0  0  0  0  0  0
  128.3341  139.0923  166.8684 H   0  0  0  0  0  0  0  0  0  0  0  0
  127.0773  144.4298  165.6224 H   0  0  0  0  0  0  0  0  0  0  0  0
  1  2  1  0
  1 38  1  0
  1 39  1  0
  1 40  1  0
  2 37  1  0
  2  3  1  0
  3  4  2  0
  3 41  1  0
  4  5  1  0
  4 36  1  0
  5  6  1  0
  5 30  1  0
  5 42  1  0
  6  7  1  0
  6 43  1  0
  7 29  1  0
  7  8  2  0
  8  9  1  0
  8 44  1  0
  9 10  2  0
  9 45  1  0
 10 11  1  0
 10 25  1  0
 11 12  2  0
 11 13  1  0
 13 14  1  0
 13 46  1  0
 14 15  1  6
 14 24  1  0
 14 16  1  0
 16 17  1  0
 16 47  1  0
 16 48  1  0
 17 18  1  0
 17 49  1  0
 17 50  1  0
 18 19  1  0
 18 20  1  0
 18 21  1  0
 21 23  1  0
 21 22  1  0
 21 24  1  0
 22 23  1  0
 22 51  1  0
 22 52  1  0
 23 53  1  0
 23 54  1  0
 24 55  1  0
 24 56  1  0
 25 26  1  0
 25 29  2  0
 26 27  1  0
 26 28  1  0
 26 57  1  0
 29 58  1  0
 30 35  2  0
 30 31  1  0
 31 32  2  0
 31 59  1  0
 32 33  1  0
 33 34  1  0
 33 35  1  0
 34 60  1  0
 34 61  1  0
 34 62  1  0
 35 63  1  0
 36 37  2  0
 36 64  1  0
M  CHG  1  18   1
M  END
>  <DOCK_score>  (1) 
-41.499596

>  <SMILES>  (1) 
Cn1cc(C(Nc2ccc(C(=O)N[C@H]3CC[NH2+]C4(CC4)C3)c(C(F)F)c2)c2cnn(C)c2)cn1

$$$$
