Nc1ccc(-c2c[nH]c(NCc3cn(-c4ccccc4)nc3-c3ccc(C4CC=CC4)cc3)[nH+]2)cc1
     RDKit          3D

 65 70  0  0  1  0  0  0  0  0999 V2000
  130.2865  129.9089  151.3633 N   0  0  0  0  0  0  0  0  0  0  0  0
  130.4960  130.4053  152.6522 C   0  0  0  0  0  0  0  0  0  0  0  0
  130.2045  131.7333  152.9402 C   0  0  0  0  0  0  0  0  0  0  0  0
  130.4109  132.2255  154.2118 C   0  0  0  0  0  0  0  0  0  0  0  0
  130.9120  131.3897  155.2087 C   0  0  0  0  0  0  0  0  0  0  0  0
  131.1348  131.9170  156.5773 C   0  0  0  0  0  0  0  0  0  0  0  0
  131.0552  131.2059  157.7290 C   0  0  0  0  0  0  0  0  0  0  0  0
  131.3382  132.0761  158.7552 N   0  0  0  0  0  0  0  0  0  0  0  0
  131.3631  131.8609  159.7006 H   0  0  0  0  0  0  0  0  0  0  0  0
  131.5733  133.2956  158.1996 C   0  0  0  0  0  0  0  0  0  0  0  0
  131.8916  134.4503  158.8939 N   0  0  0  0  0  0  0  0  0  0  0  0
  131.9992  134.4205  160.3546 C   0  0  0  0  0  0  0  0  0  0  0  0
  130.6551  134.7258  160.9639 C   0  0  0  0  0  0  0  0  0  0  0  0
  129.4708  134.2018  160.5799 C   0  0  0  0  0  0  0  0  0  0  0  0
  128.5039  134.7314  161.3740 N   0  0  0  0  0  0  0  0  0  0  0  0
  127.1333  134.4495  161.3019 C   0  0  0  0  0  0  0  0  0  0  0  0
  126.2495  135.0643  162.1788 C   0  0  0  0  0  0  0  0  0  0  0  0
  124.8990  134.7847  162.1050 C   0  0  0  0  0  0  0  0  0  0  0  0
  124.4267  133.8935  161.1590 C   0  0  0  0  0  0  0  0  0  0  0  0
  125.3044  133.2795  160.2843 C   0  0  0  0  0  0  0  0  0  0  0  0
  126.6560  133.5550  160.3531 C   0  0  0  0  0  0  0  0  0  0  0  0
  129.1183  135.6039  162.2814 N   0  0  0  0  0  0  0  0  0  0  0  0
  130.4122  135.6040  162.0385 C   0  0  0  0  0  0  0  0  0  0  0  0
  131.4361  136.3909  162.7695 C   0  0  0  0  0  0  0  0  0  0  0  0
  131.3658  137.7824  162.7893 C   0  0  0  0  0  0  0  0  0  0  0  0
  132.3174  138.5091  163.4757 C   0  0  0  0  0  0  0  0  0  0  0  0
  133.3460  137.8591  164.1335 C   0  0  0  0  0  0  0  0  0  0  0  0
  134.3856  138.6582  164.8763 C   0  0  0  0  0  0  0  0  0  0  0  0
  133.7239  139.6533  165.8578 C   0  0  0  0  0  0  0  0  0  0  0  0
  134.5916  140.8894  165.7936 C   0  0  0  0  0  0  0  0  0  0  0  0
  135.3600  140.8704  164.7387 C   0  0  0  0  0  0  0  0  0  0  0  0
  135.1331  139.6191  163.9227 C   0  0  0  0  0  0  0  0  0  0  0  0
  133.4238  136.4781  164.1123 C   0  0  0  0  0  0  0  0  0  0  0  0
  132.4743  135.7413  163.4339 C   0  0  0  0  0  0  0  0  0  0  0  0
  131.4543  133.1958  156.8979 N   0  0  0  0  0  0  0  0  0  0  0  0
  131.5754  133.9208  156.2649 H   0  0  0  0  0  0  0  0  0  0  0  0
  131.2086  130.0595  154.9161 C   0  0  0  0  0  0  0  0  0  0  0  0
  130.9953  129.5702  153.6447 C   0  0  0  0  0  0  0  0  0  0  0  0
  129.9379  130.4912  150.6702 H   0  0  0  0  0  0  0  0  0  0  0  0
  130.4897  128.9823  151.1615 H   0  0  0  0  0  0  0  0  0  0  0  0
  129.8164  132.3804  152.1677 H   0  0  0  0  0  0  0  0  0  0  0  0
  130.1843  133.2576  154.4352 H   0  0  0  0  0  0  0  0  0  0  0  0
  130.8192  130.1562  157.8222 H   0  0  0  0  0  0  0  0  0  0  0  0
  132.0434  135.2790  158.4132 H   0  0  0  0  0  0  0  0  0  0  0  0
  132.7239  135.1665  160.6809 H   0  0  0  0  0  0  0  0  0  0  0  0
  132.3269  133.4313  160.6747 H   0  0  0  0  0  0  0  0  0  0  0  0
  129.3192  133.4902  159.7818 H   0  0  0  0  0  0  0  0  0  0  0  0
  126.6177  135.7607  162.9176 H   0  0  0  0  0  0  0  0  0  0  0  0
  124.2116  135.2591  162.7897 H   0  0  0  0  0  0  0  0  0  0  0  0
  123.3702  133.6765  161.1031 H   0  0  0  0  0  0  0  0  0  0  0  0
  124.9324  132.5842  159.5463 H   0  0  0  0  0  0  0  0  0  0  0  0
  127.3409  133.0755  159.6695 H   0  0  0  0  0  0  0  0  0  0  0  0
  130.5657  138.2911  162.2721 H   0  0  0  0  0  0  0  0  0  0  0  0
  132.2612  139.5874  163.4957 H   0  0  0  0  0  0  0  0  0  0  0  0
  135.0832  138.0015  165.3960 H   0  0  0  0  0  0  0  0  0  0  0  0
  132.7085  139.8851  165.5364 H   0  0  0  0  0  0  0  0  0  0  0  0
  133.7192  139.2438  166.8680 H   0  0  0  0  0  0  0  0  0  0  0  0
  134.5778  141.6838  166.5252 H   0  0  0  0  0  0  0  0  0  0  0  0
  136.0658  141.6469  164.4830 H   0  0  0  0  0  0  0  0  0  0  0  0
  136.0860  139.1864  163.6181 H   0  0  0  0  0  0  0  0  0  0  0  0
  134.5201  139.8396  163.0488 H   0  0  0  0  0  0  0  0  0  0  0  0
  134.2290  135.9757  164.6278 H   0  0  0  0  0  0  0  0  0  0  0  0
  132.5360  134.6631  163.4183 H   0  0  0  0  0  0  0  0  0  0  0  0
  131.6014  129.4115  155.6857 H   0  0  0  0  0  0  0  0  0  0  0  0
  131.2208  128.5384  153.4187 H   0  0  0  0  0  0  0  0  0  0  0  0
  1  2  1  0
  1 39  1  0
  1 40  1  0
  2 38  2  0
  2  3  1  0
  3  4  2  0
  3 41  1  0
  4  5  1  0
  4 42  1  0
  5  6  1  0
  5 37  2  0
  6 35  1  0
  6  7  2  0
  7  8  1  0
  7 43  1  0
  8  9  1  0
  8 10  1  0
 10 11  1  0
 10 35  2  0
 11 12  1  0
 11 44  1  0
 12 13  1  0
 12 45  1  0
 12 46  1  0
 13 23  1  0
 13 14  2  0
 14 15  1  0
 14 47  1  0
 15 16  1  0
 15 22  1  0
 16 21  1  0
 16 17  2  0
 17 18  1  0
 17 48  1  0
 18 19  2  0
 18 49  1  0
 19 20  1  0
 19 50  1  0
 20 21  2  0
 20 51  1  0
 21 52  1  0
 22 23  2  0
 23 24  1  0
 24 34  1  0
 24 25  2  0
 25 26  1  0
 25 53  1  0
 26 27  2  0
 26 54  1  0
 27 28  1  0
 27 33  1  0
 28 32  1  0
 28 29  1  0
 28 55  1  0
 29 30  1  0
 29 56  1  0
 29 57  1  0
 30 31  2  0
 30 58  1  0
 31 32  1  0
 31 59  1  0
 32 60  1  0
 32 61  1  0
 33 34  2  0
 33 62  1  0
 34 63  1  0
 35 36  1  0
 37 38  1  0
 37 64  1  0
 38 65  1  0
M  CHG  1  35   1
M  END
>  <DOCK_score>  (1) 
-56.327953

>  <SMILES>  (1) 
Nc1ccc(-c2c[nH]c(NCc3cn(-c4ccccc4)nc3-c3ccc(C4CC=CC4)cc3)[nH+]2)cc1

$$$$
