CC[C@H](O)c1cccc(Nc2ccc(CNC3=[NH+]CCN3CC)cc2)c1
     RDKit          3D

 55 57  0  0  1  0  0  0  0  0999 V2000
  127.9955  141.6305  166.8686 C   0  0  0  0  0  0  0  0  0  0  0  0
  128.4373  140.5136  165.9208 C   0  0  0  0  0  0  0  0  0  0  0  0
  127.3871  139.4009  165.9192 C   0  0  2  0  0  0  0  0  0  0  0  0
  126.4310  139.8041  165.5851 H   0  0  0  0  0  0  0  0  0  0  0  0
  127.2471  138.8764  167.2411 O   0  0  0  0  0  0  0  0  0  0  0  0
  127.8222  138.3008  164.9856 C   0  0  0  0  0  0  0  0  0  0  0  0
  129.0140  137.6358  165.2097 C   0  0  0  0  0  0  0  0  0  0  0  0
  129.4171  136.6259  164.3557 C   0  0  0  0  0  0  0  0  0  0  0  0
  128.6304  136.2781  163.2751 C   0  0  0  0  0  0  0  0  0  0  0  0
  127.4327  136.9439  163.0470 C   0  0  0  0  0  0  0  0  0  0  0  0
  126.6350  136.5952  161.9548 N   0  0  0  0  0  0  0  0  0  0  0  0
  127.2233  136.0938  160.7910 C   0  0  0  0  0  0  0  0  0  0  0  0
  126.8870  134.8276  160.3300 C   0  0  0  0  0  0  0  0  0  0  0  0
  127.4705  134.3358  159.1789 C   0  0  0  0  0  0  0  0  0  0  0  0
  128.3888  135.1026  158.4855 C   0  0  0  0  0  0  0  0  0  0  0  0
  129.0236  134.5626  157.2298 C   0  0  0  0  0  0  0  0  0  0  0  0
  129.4408  133.1758  157.4509 N   0  0  0  0  0  0  0  0  0  0  0  0
  130.0486  132.4711  156.4389 C   0  0  0  0  0  0  0  0  0  0  0  0
  130.2740  132.9754  155.2697 N   0  0  0  0  0  0  0  0  0  0  0  0
  130.0418  133.8777  154.9995 H   0  0  0  0  0  0  0  0  0  0  0  0
  130.9356  131.9833  154.4111 C   0  0  0  0  0  0  0  0  0  0  0  0
  131.0639  130.7378  155.3105 C   0  0  0  0  0  0  0  0  0  0  0  0
  130.4613  131.1748  156.5810 N   0  0  0  0  0  0  0  0  0  0  0  0
  130.3266  130.3598  157.7910 C   0  0  0  0  0  0  0  0  0  0  0  0
  131.5693  130.5363  158.6658 C   0  0  0  0  0  0  0  0  0  0  0  0
  128.7303  136.3616  158.9445 C   0  0  0  0  0  0  0  0  0  0  0  0
  128.1464  136.8619  160.0916 C   0  0  0  0  0  0  0  0  0  0  0  0
  127.0331  137.9616  163.9046 C   0  0  0  0  0  0  0  0  0  0  0  0
  127.0394  142.0336  166.5345 H   0  0  0  0  0  0  0  0  0  0  0  0
  127.8886  141.2303  167.8769 H   0  0  0  0  0  0  0  0  0  0  0  0
  128.7436  142.4232  166.8696 H   0  0  0  0  0  0  0  0  0  0  0  0
  129.3932  140.1105  166.2549 H   0  0  0  0  0  0  0  0  0  0  0  0
  128.5440  140.9138  164.9125 H   0  0  0  0  0  0  0  0  0  0  0  0
  128.0609  138.5000  167.6031 H   0  0  0  0  0  0  0  0  0  0  0  0
  129.6316  137.9063  166.0545 H   0  0  0  0  0  0  0  0  0  0  0  0
  130.3483  136.1087  164.5335 H   0  0  0  0  0  0  0  0  0  0  0  0
  128.9461  135.4896  162.6079 H   0  0  0  0  0  0  0  0  0  0  0  0
  125.6716  136.7004  162.0043 H   0  0  0  0  0  0  0  0  0  0  0  0
  126.1695  134.2282  160.8709 H   0  0  0  0  0  0  0  0  0  0  0  0
  127.2097  133.3511  158.8202 H   0  0  0  0  0  0  0  0  0  0  0  0
  129.8935  135.1673  156.9736 H   0  0  0  0  0  0  0  0  0  0  0  0
  128.3024  134.5992  156.4134 H   0  0  0  0  0  0  0  0  0  0  0  0
  129.2882  132.7547  158.3114 H   0  0  0  0  0  0  0  0  0  0  0  0
  131.9202  132.3356  154.1035 H   0  0  0  0  0  0  0  0  0  0  0  0
  130.3200  131.7631  153.5390 H   0  0  0  0  0  0  0  0  0  0  0  0
  132.1115  130.4725  155.4530 H   0  0  0  0  0  0  0  0  0  0  0  0
  130.5096  129.8983  154.8907 H   0  0  0  0  0  0  0  0  0  0  0  0
  129.4436  130.6766  158.3459 H   0  0  0  0  0  0  0  0  0  0  0  0
  130.2239  129.3109  157.5128 H   0  0  0  0  0  0  0  0  0  0  0  0
  132.4523  130.2196  158.1107 H   0  0  0  0  0  0  0  0  0  0  0  0
  131.6717  131.5853  158.9438 H   0  0  0  0  0  0  0  0  0  0  0  0
  131.4690  129.9301  159.5659 H   0  0  0  0  0  0  0  0  0  0  0  0
  129.4514  136.9559  158.4032 H   0  0  0  0  0  0  0  0  0  0  0  0
  128.4102  137.8469  160.4472 H   0  0  0  0  0  0  0  0  0  0  0  0
  126.1047  138.4842  163.7277 H   0  0  0  0  0  0  0  0  0  0  0  0
  1  2  1  0
  1 29  1  0
  1 30  1  0
  1 31  1  0
  2  3  1  0
  2 32  1  0
  2 33  1  0
  3  4  1  6
  3  5  1  0
  3  6  1  0
  5 34  1  0
  6 28  2  0
  6  7  1  0
  7  8  2  0
  7 35  1  0
  8  9  1  0
  8 36  1  0
  9 10  2  0
  9 37  1  0
 10 11  1  0
 10 28  1  0
 11 12  1  0
 11 38  1  0
 12 27  1  0
 12 13  2  0
 13 14  1  0
 13 39  1  0
 14 15  2  0
 14 40  1  0
 15 16  1  0
 15 26  1  0
 16 17  1  0
 16 41  1  0
 16 42  1  0
 17 43  1  0
 18 17  1  0
 18 23  1  0
 18 19  2  0
 19 20  1  0
 19 21  1  0
 21 22  1  0
 21 44  1  0
 21 45  1  0
 22 23  1  0
 22 46  1  0
 22 47  1  0
 23 24  1  0
 24 25  1  0
 24 48  1  0
 24 49  1  0
 25 50  1  0
 25 51  1  0
 25 52  1  0
 26 27  2  0
 26 53  1  0
 27 54  1  0
 28 55  1  0
M  CHG  1  19   1
M  END
>  <DOCK_score>  (1) 
-41.045483

>  <SMILES>  (1) 
CC[C@H](O)c1cccc(Nc2ccc(CNC3=[NH+]CCN3CC)cc2)c1

$$$$
