CCc1ccc(-c2c[nH]c(N[C@@H](Cc3ccc(C)cc3)c3ncccc3C3CC3)[nH+]2)cc1
     RDKit          3D

 63 67  0  0  1  0  0  0  0  0999 V2000
  130.5657  128.4635  151.5970 C   0  0  0  0  0  0  0  0  0  0  0  0
  131.6560  129.4732  151.9605 C   0  0  0  0  0  0  0  0  0  0  0  0
  131.2761  130.1868  153.2324 C   0  0  0  0  0  0  0  0  0  0  0  0
  131.6683  129.6722  154.4545 C   0  0  0  0  0  0  0  0  0  0  0  0
  131.3273  130.3241  155.6222 C   0  0  0  0  0  0  0  0  0  0  0  0
  130.5772  131.4976  155.5687 C   0  0  0  0  0  0  0  0  0  0  0  0
  130.2034  132.1998  156.8205 C   0  0  0  0  0  0  0  0  0  0  0  0
  129.4681  131.6834  157.8363 C   0  0  0  0  0  0  0  0  0  0  0  0
  129.3617  132.6656  158.7908 N   0  0  0  0  0  0  0  0  0  0  0  0
  128.8925  132.5959  159.6370 H   0  0  0  0  0  0  0  0  0  0  0  0
  130.0357  133.7544  158.3301 C   0  0  0  0  0  0  0  0  0  0  0  0
  130.1690  134.9612  158.9952 N   0  0  0  0  0  0  0  0  0  0  0  0
  129.1155  135.4156  159.9062 C   0  0  1  0  0  0  0  0  0  0  0  0
  128.9876  134.6867  160.7064 H   0  0  0  0  0  0  0  0  0  0  0  0
  129.5079  136.7676  160.5058 C   0  0  0  0  0  0  0  0  0  0  0  0
  130.8014  136.6235  161.2657 C   0  0  0  0  0  0  0  0  0  0  0  0
  131.1204  135.4192  161.8650 C   0  0  0  0  0  0  0  0  0  0  0  0
  132.3089  135.2859  162.5583 C   0  0  0  0  0  0  0  0  0  0  0  0
  133.1737  136.3593  162.6605 C   0  0  0  0  0  0  0  0  0  0  0  0
  134.4672  136.2153  163.4203 C   0  0  0  0  0  0  0  0  0  0  0  0
  132.8524  137.5649  162.0653 C   0  0  0  0  0  0  0  0  0  0  0  0
  131.6660  137.6971  161.3682 C   0  0  0  0  0  0  0  0  0  0  0  0
  127.8220  135.5596  159.1464 C   0  0  0  0  0  0  0  0  0  0  0  0
  127.8499  135.8737  157.8659 N   0  0  0  0  0  0  0  0  0  0  0  0
  126.7438  136.0047  157.1599 C   0  0  0  0  0  0  0  0  0  0  0  0
  125.5052  135.8268  157.7469 C   0  0  0  0  0  0  0  0  0  0  0  0
  125.4359  135.5016  159.0928 C   0  0  0  0  0  0  0  0  0  0  0  0
  126.6205  135.3667  159.8009 C   0  0  0  0  0  0  0  0  0  0  0  0
  126.5977  135.0136  161.2658 C   0  0  0  0  0  0  0  0  0  0  0  0
  126.8288  133.5490  161.6432 C   0  0  0  0  0  0  0  0  0  0  0  0
  125.4318  134.1600  161.7687 C   0  0  0  0  0  0  0  0  0  0  0  0
  130.5415  133.4706  157.1547 N   0  0  0  0  0  0  0  0  0  0  0  0
  131.0714  134.0734  156.6100 H   0  0  0  0  0  0  0  0  0  0  0  0
  130.1803  132.0089  154.3345 C   0  0  0  0  0  0  0  0  0  0  0  0
  130.5314  131.3515  153.1729 C   0  0  0  0  0  0  0  0  0  0  0  0
  130.8406  127.9474  150.6771 H   0  0  0  0  0  0  0  0  0  0  0  0
  130.4600  127.7375  152.4032 H   0  0  0  0  0  0  0  0  0  0  0  0
  129.6201  128.9858  151.4521 H   0  0  0  0  0  0  0  0  0  0  0  0
  132.6016  128.9514  152.1052 H   0  0  0  0  0  0  0  0  0  0  0  0
  131.7617  130.1998  151.1540 H   0  0  0  0  0  0  0  0  0  0  0  0
  132.2458  128.7604  154.4951 H   0  0  0  0  0  0  0  0  0  0  0  0
  131.6381  129.9236  156.5760 H   0  0  0  0  0  0  0  0  0  0  0  0
  129.0466  130.6903  157.8852 H   0  0  0  0  0  0  0  0  0  0  0  0
  130.9598  135.5058  158.8581 H   0  0  0  0  0  0  0  0  0  0  0  0
  129.6359  137.4966  159.7056 H   0  0  0  0  0  0  0  0  0  0  0  0
  128.7241  137.1057  161.1834 H   0  0  0  0  0  0  0  0  0  0  0  0
  130.4429  134.5818  161.7885 H   0  0  0  0  0  0  0  0  0  0  0  0
  132.5600  134.3439  163.0231 H   0  0  0  0  0  0  0  0  0  0  0  0
  134.3060  136.4799  164.4654 H   0  0  0  0  0  0  0  0  0  0  0  0
  134.8133  135.1837  163.3561 H   0  0  0  0  0  0  0  0  0  0  0  0
  135.2176  136.8778  162.9892 H   0  0  0  0  0  0  0  0  0  0  0  0
  133.5282  138.4036  162.1451 H   0  0  0  0  0  0  0  0  0  0  0  0
  131.4148  138.6390  160.9035 H   0  0  0  0  0  0  0  0  0  0  0  0
  126.8065  136.2579  156.1118 H   0  0  0  0  0  0  0  0  0  0  0  0
  124.6027  135.9402  157.1645 H   0  0  0  0  0  0  0  0  0  0  0  0
  124.4820  135.3569  159.5782 H   0  0  0  0  0  0  0  0  0  0  0  0
  126.9909  135.7753  161.9391 H   0  0  0  0  0  0  0  0  0  0  0  0
  126.9973  132.8409  160.8320 H   0  0  0  0  0  0  0  0  0  0  0  0
  127.3743  133.3469  162.5650 H   0  0  0  0  0  0  0  0  0  0  0  0
  125.0582  134.3599  162.7731 H   0  0  0  0  0  0  0  0  0  0  0  0
  124.6812  133.8537  161.0400 H   0  0  0  0  0  0  0  0  0  0  0  0
  129.5987  132.9177  154.2870 H   0  0  0  0  0  0  0  0  0  0  0  0
  130.2246  131.7471  152.2159 H   0  0  0  0  0  0  0  0  0  0  0  0
  1  2  1  0
  1 36  1  0
  1 37  1  0
  1 38  1  0
  2  3  1  0
  2 39  1  0
  2 40  1  0
  3 35  2  0
  3  4  1  0
  4  5  2  0
  4 41  1  0
  5  6  1  0
  5 42  1  0
  6  7  1  0
  6 34  2  0
  7 32  1  0
  7  8  2  0
  8  9  1  0
  8 43  1  0
  9 10  1  0
  9 11  1  0
 11 12  1  0
 11 32  2  0
 12 13  1  0
 12 44  1  0
 13 14  1  1
 13 15  1  0
 13 23  1  0
 15 16  1  0
 15 45  1  0
 15 46  1  0
 16 22  1  0
 16 17  2  0
 17 18  1  0
 17 47  1  0
 18 19  2  0
 18 48  1  0
 19 20  1  0
 19 21  1  0
 20 49  1  0
 20 50  1  0
 20 51  1  0
 21 22  2  0
 21 52  1  0
 22 53  1  0
 23 28  1  0
 23 24  2  0
 24 25  1  0
 25 26  2  0
 25 54  1  0
 26 27  1  0
 26 55  1  0
 27 28  2  0
 27 56  1  0
 28 29  1  0
 29 31  1  0
 29 30  1  0
 29 57  1  0
 30 31  1  0
 30 58  1  0
 30 59  1  0
 31 60  1  0
 31 61  1  0
 32 33  1  0
 34 35  1  0
 34 62  1  0
 35 63  1  0
M  CHG  1  32   1
M  END
>  <DOCK_score>  (1) 
-62.196026

>  <SMILES>  (1) 
CCc1ccc(-c2c[nH]c(N[C@@H](Cc3ccc(C)cc3)c3ncccc3C3CC3)[nH+]2)cc1

$$$$
