Nc1ccc(-c2c[nH]c(N[C@H](Cc3ccc(Cl)cc3)c3ccc(F)cc3)[nH+]2)cc1
     RDKit          3D

 50 53  0  0  1  0  0  0  0  0999 V2000
  130.7506  129.7248  154.2036 N   0  0  0  0  0  0  0  0  0  0  0  0
  130.7967  130.5508  155.3292 C   0  0  0  0  0  0  0  0  0  0  0  0
  130.5861  131.9182  155.1957 C   0  0  0  0  0  0  0  0  0  0  0  0
  130.6308  132.7353  156.3055 C   0  0  0  0  0  0  0  0  0  0  0  0
  130.8873  132.1890  157.5621 C   0  0  0  0  0  0  0  0  0  0  0  0
  130.9362  133.0661  158.7576 C   0  0  0  0  0  0  0  0  0  0  0  0
  130.6091  132.7080  160.0238 C   0  0  0  0  0  0  0  0  0  0  0  0
  130.7981  133.8176  160.8133 N   0  0  0  0  0  0  0  0  0  0  0  0
  130.6473  133.8746  161.7698 H   0  0  0  0  0  0  0  0  0  0  0  0
  131.2352  134.8210  160.0048 C   0  0  0  0  0  0  0  0  0  0  0  0
  131.5440  136.1077  160.4118 N   0  0  0  0  0  0  0  0  0  0  0  0
  131.4088  136.4825  161.8215 C   0  0  2  0  0  0  0  0  0  0  0  0
  130.5058  136.0313  162.2325 H   0  0  0  0  0  0  0  0  0  0  0  0
  131.3166  138.0053  161.9379 C   0  0  0  0  0  0  0  0  0  0  0  0
  132.5654  138.6289  161.3696 C   0  0  0  0  0  0  0  0  0  0  0  0
  133.6523  138.8689  162.1894 C   0  0  0  0  0  0  0  0  0  0  0  0
  134.7999  139.4356  161.6677 C   0  0  0  0  0  0  0  0  0  0  0  0
  134.8566  139.7732  160.3271 C   0  0  0  0  0  0  0  0  0  0  0  0
  136.2948  140.4922  159.6728 Cl  0  0  0  0  0  0  0  0  0  0  0  0
  133.7663  139.5380  159.5084 C   0  0  0  0  0  0  0  0  0  0  0  0
  132.6214  138.9660  160.0302 C   0  0  0  0  0  0  0  0  0  0  0  0
  132.6095  135.9919  162.5890 C   0  0  0  0  0  0  0  0  0  0  0  0
  132.4857  135.6567  163.9245 C   0  0  0  0  0  0  0  0  0  0  0  0
  133.5850  135.2020  164.6281 C   0  0  0  0  0  0  0  0  0  0  0  0
  134.8129  135.0927  163.9976 C   0  0  0  0  0  0  0  0  0  0  0  0
  135.8892  134.6530  164.6857 F   0  0  0  0  0  0  0  0  0  0  0  0
  134.9368  135.4339  162.6615 C   0  0  0  0  0  0  0  0  0  0  0  0
  133.8350  135.8831  161.9586 C   0  0  0  0  0  0  0  0  0  0  0  0
  131.3165  134.3682  158.7774 N   0  0  0  0  0  0  0  0  0  0  0  0
  131.6026  134.8822  158.0062 H   0  0  0  0  0  0  0  0  0  0  0  0
  131.1035  130.8181  157.6929 C   0  0  0  0  0  0  0  0  0  0  0  0
  131.0527  130.0040  156.5811 C   0  0  0  0  0  0  0  0  0  0  0  0
  130.5717  130.1057  153.3295 H   0  0  0  0  0  0  0  0  0  0  0  0
  130.8975  128.7704  154.2959 H   0  0  0  0  0  0  0  0  0  0  0  0
  130.3876  132.3409  154.2220 H   0  0  0  0  0  0  0  0  0  0  0  0
  130.4665  133.7976  156.2014 H   0  0  0  0  0  0  0  0  0  0  0  0
  130.2698  131.7361  160.3504 H   0  0  0  0  0  0  0  0  0  0  0  0
  131.8498  136.7612  159.7633 H   0  0  0  0  0  0  0  0  0  0  0  0
  130.4484  138.3601  161.3827 H   0  0  0  0  0  0  0  0  0  0  0  0
  131.2161  138.2841  162.9867 H   0  0  0  0  0  0  0  0  0  0  0  0
  133.6065  138.6094  163.2368 H   0  0  0  0  0  0  0  0  0  0  0  0
  135.6507  139.6191  162.3072 H   0  0  0  0  0  0  0  0  0  0  0  0
  133.8098  139.8017  158.4621 H   0  0  0  0  0  0  0  0  0  0  0  0
  131.7702  138.7827  159.3913 H   0  0  0  0  0  0  0  0  0  0  0  0
  131.5288  135.7459  164.4171 H   0  0  0  0  0  0  0  0  0  0  0  0
  133.4872  134.9362  165.6702 H   0  0  0  0  0  0  0  0  0  0  0  0
  135.8942  135.3493  162.1689 H   0  0  0  0  0  0  0  0  0  0  0  0
  133.9313  136.1490  160.9162 H   0  0  0  0  0  0  0  0  0  0  0  0
  131.3069  130.3934  158.6649 H   0  0  0  0  0  0  0  0  0  0  0  0
  131.2164  128.9413  156.6825 H   0  0  0  0  0  0  0  0  0  0  0  0
  1  2  1  0
  1 33  1  0
  1 34  1  0
  2 32  2  0
  2  3  1  0
  3  4  2  0
  3 35  1  0
  4  5  1  0
  4 36  1  0
  5  6  1  0
  5 31  2  0
  6 29  1  0
  6  7  2  0
  7  8  1  0
  7 37  1  0
  8  9  1  0
  8 10  1  0
 10 11  1  0
 10 29  2  0
 11 12  1  0
 11 38  1  0
 12 13  1  1
 12 14  1  0
 12 22  1  0
 14 15  1  0
 14 39  1  0
 14 40  1  0
 15 21  1  0
 15 16  2  0
 16 17  1  0
 16 41  1  0
 17 18  2  0
 17 42  1  0
 18 19  1  0
 18 20  1  0
 20 21  2  0
 20 43  1  0
 21 44  1  0
 22 28  1  0
 22 23  2  0
 23 24  1  0
 23 45  1  0
 24 25  2  0
 24 46  1  0
 25 26  1  0
 25 27  1  0
 27 28  2  0
 27 47  1  0
 28 48  1  0
 29 30  1  0
 31 32  1  0
 31 49  1  0
 32 50  1  0
M  CHG  1  29   1
M  END
>  <DOCK_score>  (1) 
-57.592407

>  <SMILES>  (1) 
Nc1ccc(-c2c[nH]c(N[C@H](Cc3ccc(Cl)cc3)c3ccc(F)cc3)[nH+]2)cc1

$$$$
