CCOC(=O)c1oc2ccc(-c3c[nH]c4ccc(F)cc34)cc2c1C[NH2+][C@@H]1CCC2(CCC2)OC1
     RDKit          3D

 65 70  0  0  1  0  0  0  0  0999 V2000
  125.9936  140.0391  165.9044 C   0  0  0  0  0  0  0  0  0  0  0  0
  127.3746  139.7080  165.3351 C   0  0  0  0  0  0  0  0  0  0  0  0
  127.2276  138.8264  164.1906 O   0  0  0  0  0  0  0  0  0  0  0  0
  128.3589  138.4368  163.5687 C   0  0  0  0  0  0  0  0  0  0  0  0
  129.4387  138.8236  163.9723 O   0  0  0  0  0  0  0  0  0  0  0  0
  128.2869  137.5458  162.4043 C   0  0  0  0  0  0  0  0  0  0  0  0
  127.1488  137.0511  161.8743 O   0  0  0  0  0  0  0  0  0  0  0  0
  127.4152  136.2672  160.8104 C   0  0  0  0  0  0  0  0  0  0  0  0
  126.6068  135.5438  159.9392 C   0  0  0  0  0  0  0  0  0  0  0  0
  127.1702  134.8098  158.9219 C   0  0  0  0  0  0  0  0  0  0  0  0
  128.5587  134.7805  158.7480 C   0  0  0  0  0  0  0  0  0  0  0  0
  129.1511  133.9843  157.6462 C   0  0  0  0  0  0  0  0  0  0  0  0
  129.4154  134.4148  156.3890 C   0  0  0  0  0  0  0  0  0  0  0  0
  129.9590  133.3975  155.6574 N   0  0  0  0  0  0  0  0  0  0  0  0
  130.2307  133.4647  154.7287 H   0  0  0  0  0  0  0  0  0  0  0  0
  130.0644  132.2607  156.4309 C   0  0  0  0  0  0  0  0  0  0  0  0
  130.5391  130.9773  156.1783 C   0  0  0  0  0  0  0  0  0  0  0  0
  130.5171  130.0274  157.1751 C   0  0  0  0  0  0  0  0  0  0  0  0
  130.0241  130.3369  158.4376 C   0  0  0  0  0  0  0  0  0  0  0  0
  130.0103  129.3931  159.4041 F   0  0  0  0  0  0  0  0  0  0  0  0
  129.5499  131.6028  158.7077 C   0  0  0  0  0  0  0  0  0  0  0  0
  129.5716  132.5756  157.7084 C   0  0  0  0  0  0  0  0  0  0  0  0
  129.3813  135.4962  159.6068 C   0  0  0  0  0  0  0  0  0  0  0  0
  128.8125  136.2418  160.6408 C   0  0  0  0  0  0  0  0  0  0  0  0
  129.3566  137.0898  161.7011 C   0  0  0  0  0  0  0  0  0  0  0  0
  130.8092  137.3960  161.9609 C   0  0  0  0  0  0  0  0  0  0  0  0
  131.4776  137.7120  160.6916 N   0  0  0  0  0  0  0  0  0  0  0  0
  131.4068  136.9219  160.0682 H   0  0  0  0  0  0  0  0  0  0  0  0
  131.0351  138.5144  160.2691 H   0  0  0  0  0  0  0  0  0  0  0  0
  132.8934  138.0106  160.9450 C   0  0  2  0  0  0  0  0  0  0  0  0
  133.2811  137.3230  161.6966 H   0  0  0  0  0  0  0  0  0  0  0  0
  133.0292  139.4498  161.4511 C   0  0  0  0  0  0  0  0  0  0  0  0
  134.5134  139.7603  161.6783 C   0  0  0  0  0  0  0  0  0  0  0  0
  135.2819  139.4759  160.3885 C   0  0  0  0  0  0  0  0  0  0  0  0
  136.7627  139.8699  160.4595 C   0  0  0  0  0  0  0  0  0  0  0  0
  136.6101  140.3879  159.0189 C   0  0  0  0  0  0  0  0  0  0  0  0
  135.1130  140.5681  159.3242 C   0  0  0  0  0  0  0  0  0  0  0  0
  135.0647  138.1573  159.8913 O   0  0  0  0  0  0  0  0  0  0  0  0
  133.6891  137.8502  159.6476 C   0  0  0  0  0  0  0  0  0  0  0  0
  126.1039  140.7008  166.7636 H   0  0  0  0  0  0  0  0  0  0  0  0
  125.4987  139.1191  166.2156 H   0  0  0  0  0  0  0  0  0  0  0  0
  125.3943  140.5334  165.1397 H   0  0  0  0  0  0  0  0  0  0  0  0
  127.8695  140.6279  165.0239 H   0  0  0  0  0  0  0  0  0  0  0  0
  127.9739  139.2138  166.0997 H   0  0  0  0  0  0  0  0  0  0  0  0
  125.5340  135.5584  160.0625 H   0  0  0  0  0  0  0  0  0  0  0  0
  126.5352  134.2510  158.2505 H   0  0  0  0  0  0  0  0  0  0  0  0
  129.2253  135.4122  156.0209 H   0  0  0  0  0  0  0  0  0  0  0  0
  130.9241  130.7263  155.2010 H   0  0  0  0  0  0  0  0  0  0  0  0
  130.8866  129.0326  156.9743 H   0  0  0  0  0  0  0  0  0  0  0  0
  129.1676  131.8414  159.6891 H   0  0  0  0  0  0  0  0  0  0  0  0
  130.4532  135.4760  159.4763 H   0  0  0  0  0  0  0  0  0  0  0  0
  130.8857  138.2496  162.6343 H   0  0  0  0  0  0  0  0  0  0  0  0
  131.2872  136.5291  162.4173 H   0  0  0  0  0  0  0  0  0  0  0  0
  132.6220  140.1372  160.7096 H   0  0  0  0  0  0  0  0  0  0  0  0
  132.4858  139.5592  162.3895 H   0  0  0  0  0  0  0  0  0  0  0  0
  134.6294  140.8099  161.9484 H   0  0  0  0  0  0  0  0  0  0  0  0
  134.8995  139.1305  162.4798 H   0  0  0  0  0  0  0  0  0  0  0  0
  136.9716  140.6548  161.1863 H   0  0  0  0  0  0  0  0  0  0  0  0
  137.4376  139.0185  160.5484 H   0  0  0  0  0  0  0  0  0  0  0  0
  136.8129  139.6326  158.2596 H   0  0  0  0  0  0  0  0  0  0  0  0
  137.1339  141.3259  158.8346 H   0  0  0  0  0  0  0  0  0  0  0  0
  134.4610  140.2781  158.5002 H   0  0  0  0  0  0  0  0  0  0  0  0
  134.8660  141.5460  159.7373 H   0  0  0  0  0  0  0  0  0  0  0  0
  133.6031  136.8230  159.2932 H   0  0  0  0  0  0  0  0  0  0  0  0
  133.2936  138.5294  158.8923 H   0  0  0  0  0  0  0  0  0  0  0  0
  1  2  1  0
  1 40  1  0
  1 41  1  0
  1 42  1  0
  2  3  1  0
  2 43  1  0
  2 44  1  0
  3  4  1  0
  4  5  2  0
  4  6  1  0
  6 25  2  0
  6  7  1  0
  7  8  1  0
  8 24  2  0
  8  9  1  0
  9 10  2  0
  9 45  1  0
 10 11  1  0
 10 46  1  0
 11 12  1  0
 11 23  2  0
 12 22  1  0
 12 13  2  0
 13 14  1  0
 13 47  1  0
 14 15  1  0
 14 16  1  0
 16 22  2  0
 16 17  1  0
 17 18  2  0
 17 48  1  0
 18 19  1  0
 18 49  1  0
 19 20  1  0
 19 21  2  0
 21 22  1  0
 21 50  1  0
 23 24  1  0
 23 51  1  0
 24 25  1  0
 25 26  1  0
 26 27  1  0
 26 52  1  0
 26 53  1  0
 27 28  1  0
 27 29  1  0
 27 30  1  0
 30 31  1  1
 30 39  1  0
 30 32  1  0
 32 33  1  0
 32 54  1  0
 32 55  1  0
 33 34  1  0
 33 56  1  0
 33 57  1  0
 34 37  1  0
 34 35  1  0
 34 38  1  0
 35 36  1  0
 35 58  1  0
 35 59  1  0
 36 37  1  0
 36 60  1  0
 36 61  1  0
 37 62  1  0
 37 63  1  0
 38 39  1  0
 39 64  1  0
 39 65  1  0
M  CHG  1  27   1
M  END
>  <DOCK_score>  (1) 
-45.678909

>  <SMILES>  (1) 
CCOC(=O)c1oc2ccc(-c3c[nH]c4ccc(F)cc34)cc2c1C[NH2+][C@@H]1CCC2(CCC2)OC1

$$$$
