CCc1ccc(-c2c[nH]c(N[C@H](C=CC(F)(F)F)c3cccc(C)c3C)[nH+]2)cc1
     RDKit          3D

 54 56  0  0  1  0  0  0  0  0999 V2000
  130.0617  128.5364  151.6171 C   0  0  0  0  0  0  0  0  0  0  0  0
  131.1399  129.6069  151.7969 C   0  0  0  0  0  0  0  0  0  0  0  0
  130.9332  130.3122  153.1126 C   0  0  0  0  0  0  0  0  0  0  0  0
  131.5464  129.8320  154.2552 C   0  0  0  0  0  0  0  0  0  0  0  0
  131.3654  130.4770  155.4618 C   0  0  0  0  0  0  0  0  0  0  0  0
  130.5536  131.6078  155.5295 C   0  0  0  0  0  0  0  0  0  0  0  0
  130.3508  132.3022  156.8246 C   0  0  0  0  0  0  0  0  0  0  0  0
  129.8201  131.7577  157.9475 C   0  0  0  0  0  0  0  0  0  0  0  0
  129.8163  132.7430  158.9048 N   0  0  0  0  0  0  0  0  0  0  0  0
  129.4956  132.6572  159.8161 H   0  0  0  0  0  0  0  0  0  0  0  0
  130.3453  133.8616  158.3383 C   0  0  0  0  0  0  0  0  0  0  0  0
  130.5186  135.0809  158.9707 N   0  0  0  0  0  0  0  0  0  0  0  0
  130.1174  135.2437  160.3703 C   0  0  2  0  0  0  0  0  0  0  0  0
  130.3826  134.3474  160.9308 H   0  0  0  0  0  0  0  0  0  0  0  0
  128.6277  135.4599  160.4438 C   0  0  0  0  0  0  0  0  0  0  0  0
  127.8767  134.6218  161.1144 C   0  0  0  0  0  0  0  0  0  0  0  0
  126.3871  134.8379  161.1882 C   0  0  0  0  0  0  0  0  0  0  0  0
  125.8057  133.8211  161.9534 F   0  0  0  0  0  0  0  0  0  0  0  0
  126.1245  136.0768  161.7824 F   0  0  0  0  0  0  0  0  0  0  0  0
  125.8482  134.8161  159.8974 F   0  0  0  0  0  0  0  0  0  0  0  0
  130.8274  136.4345  160.9611 C   0  0  0  0  0  0  0  0  0  0  0  0
  130.0973  137.4971  161.4601 C   0  0  0  0  0  0  0  0  0  0  0  0
  130.7486  138.5892  162.0019 C   0  0  0  0  0  0  0  0  0  0  0  0
  132.1294  138.6190  162.0455 C   0  0  0  0  0  0  0  0  0  0  0  0
  132.8600  137.5558  161.5475 C   0  0  0  0  0  0  0  0  0  0  0  0
  134.3659  137.5875  161.5957 C   0  0  0  0  0  0  0  0  0  0  0  0
  132.2085  136.4617  161.0092 C   0  0  0  0  0  0  0  0  0  0  0  0
  133.0043  135.3006  160.4708 C   0  0  0  0  0  0  0  0  0  0  0  0
  130.6688  133.5927  157.0970 N   0  0  0  0  0  0  0  0  0  0  0  0
  131.0694  134.2172  156.4721 H   0  0  0  0  0  0  0  0  0  0  0  0
  129.9335  132.0843  154.3758 C   0  0  0  0  0  0  0  0  0  0  0  0
  130.1262  131.4346  153.1735 C   0  0  0  0  0  0  0  0  0  0  0  0
  130.1283  127.8142  152.4308 H   0  0  0  0  0  0  0  0  0  0  0  0
  129.0779  129.0056  151.6275 H   0  0  0  0  0  0  0  0  0  0  0  0
  130.2111  128.0264  150.6655 H   0  0  0  0  0  0  0  0  0  0  0  0
  132.1233  129.1383  151.7861 H   0  0  0  0  0  0  0  0  0  0  0  0
  131.0729  130.3297  150.9828 H   0  0  0  0  0  0  0  0  0  0  0  0
  132.1714  128.9528  154.2024 H   0  0  0  0  0  0  0  0  0  0  0  0
  131.8485  130.1037  156.3527 H   0  0  0  0  0  0  0  0  0  0  0  0
  129.4676  130.7439  158.0663 H   0  0  0  0  0  0  0  0  0  0  0  0
  130.9059  135.8273  158.4871 H   0  0  0  0  0  0  0  0  0  0  0  0
  128.1794  136.3056  159.9439 H   0  0  0  0  0  0  0  0  0  0  0  0
  128.3250  133.7759  161.6145 H   0  0  0  0  0  0  0  0  0  0  0  0
  129.0180  137.4740  161.4263 H   0  0  0  0  0  0  0  0  0  0  0  0
  130.1783  139.4194  162.3914 H   0  0  0  0  0  0  0  0  0  0  0  0
  132.6391  139.4717  162.4693 H   0  0  0  0  0  0  0  0  0  0  0  0
  134.7089  137.1479  162.5322 H   0  0  0  0  0  0  0  0  0  0  0  0
  134.7682  137.0179  160.7580 H   0  0  0  0  0  0  0  0  0  0  0  0
  134.7098  138.6199  161.5315 H   0  0  0  0  0  0  0  0  0  0  0  0
  133.2195  135.4660  159.4152 H   0  0  0  0  0  0  0  0  0  0  0  0
  133.9398  135.2142  161.0233 H   0  0  0  0  0  0  0  0  0  0  0  0
  132.4289  134.3819  160.5846 H   0  0  0  0  0  0  0  0  0  0  0  0
  129.3032  132.9601  154.4226 H   0  0  0  0  0  0  0  0  0  0  0  0
  129.6460  131.8027  152.2789 H   0  0  0  0  0  0  0  0  0  0  0  0
  1  2  1  0
  1 33  1  0
  1 34  1  0
  1 35  1  0
  2  3  1  0
  2 36  1  0
  2 37  1  0
  3 32  2  0
  3  4  1  0
  4  5  2  0
  4 38  1  0
  5  6  1  0
  5 39  1  0
  6  7  1  0
  6 31  2  0
  7 29  1  0
  7  8  2  0
  8  9  1  0
  8 40  1  0
  9 10  1  0
  9 11  1  0
 11 12  1  0
 11 29  2  0
 12 13  1  0
 12 41  1  0
 13 14  1  1
 13 15  1  0
 13 21  1  0
 15 16  2  0
 15 42  1  0
 16 17  1  0
 16 43  1  0
 17 18  1  0
 17 19  1  0
 17 20  1  0
 21 27  1  0
 21 22  2  0
 22 23  1  0
 22 44  1  0
 23 24  2  0
 23 45  1  0
 24 25  1  0
 24 46  1  0
 25 26  1  0
 25 27  2  0
 26 47  1  0
 26 48  1  0
 26 49  1  0
 27 28  1  0
 28 50  1  0
 28 51  1  0
 28 52  1  0
 29 30  1  0
 31 32  1  0
 31 53  1  0
 32 54  1  0
M  CHG  1  29   1
M  END
>  <DOCK_score>  (1) 
-56.911896

>  <SMILES>  (1) 
CCc1ccc(-c2c[nH]c(N[C@H](C=CC(F)(F)F)c3cccc(C)c3C)[nH+]2)cc1

$$$$
