O=C1CCC([NH+]=C(NCCC2=CCCC2)N[C@@H]2CCc3ccccc3C2)CN1
     RDKit          3D

 61 64  0  0  1  0  0  0  0  0999 V2000
  124.9587  135.7581  164.3076 O   0  0  0  0  0  0  0  0  0  0  0  0
  126.0362  135.9212  163.7754 C   0  0  0  0  0  0  0  0  0  0  0  0
  127.2523  135.3445  164.4414 C   0  0  0  0  0  0  0  0  0  0  0  0
  128.5190  136.0058  163.8834 C   0  0  0  0  0  0  0  0  0  0  0  0
  128.4367  135.9854  162.3522 C   0  0  2  0  0  0  0  0  0  0  0  0
  129.7049  136.4510  161.7856 N   0  0  0  0  0  0  0  0  0  0  0  0
  130.2467  137.0923  162.2714 H   0  0  0  0  0  0  0  0  0  0  0  0
  130.1051  136.0035  160.6287 C   0  0  0  0  0  0  0  0  0  0  0  0
  129.3368  135.0947  159.9400 N   0  0  0  0  0  0  0  0  0  0  0  0
  129.9753  134.1183  159.0539 C   0  0  0  0  0  0  0  0  0  0  0  0
  129.1323  132.8424  159.0093 C   0  0  0  0  0  0  0  0  0  0  0  0
  129.7890  131.8380  158.0977 C   0  0  0  0  0  0  0  0  0  0  0  0
  130.1929  130.6546  158.4719 C   0  0  0  0  0  0  0  0  0  0  0  0
  130.8065  129.8985  157.3164 C   0  0  0  0  0  0  0  0  0  0  0  0
  131.0948  130.9792  156.2485 C   0  0  0  0  0  0  0  0  0  0  0  0
  130.0605  132.0663  156.6288 C   0  0  0  0  0  0  0  0  0  0  0  0
  131.2952  136.4404  160.0969 N   0  0  0  0  0  0  0  0  0  0  0  0
  132.3929  136.8344  160.9835 C   0  0  2  0  0  0  0  0  0  0  0  0
  132.0727  137.6596  161.6195 H   0  0  0  0  0  0  0  0  0  0  0  0
  133.6031  137.2658  160.1467 C   0  0  0  0  0  0  0  0  0  0  0  0
  134.6357  137.8931  161.0809 C   0  0  0  0  0  0  0  0  0  0  0  0
  134.9147  136.9839  162.2490 C   0  0  0  0  0  0  0  0  0  0  0  0
  136.0708  137.2121  162.9846 C   0  0  0  0  0  0  0  0  0  0  0  0
  136.3762  136.4223  164.0733 C   0  0  0  0  0  0  0  0  0  0  0  0
  135.5259  135.3938  164.4357 C   0  0  0  0  0  0  0  0  0  0  0  0
  134.3795  135.1634  163.7043 C   0  0  0  0  0  0  0  0  0  0  0  0
  134.0706  135.9570  162.6069 C   0  0  0  0  0  0  0  0  0  0  0  0
  132.8053  135.6467  161.8506 C   0  0  0  0  0  0  0  0  0  0  0  0
  127.3047  136.9124  161.9070 C   0  0  0  0  0  0  0  0  0  0  0  0
  126.0776  136.6027  162.6299 N   0  0  0  0  0  0  0  0  0  0  0  0
  127.1952  135.5213  165.5154 H   0  0  0  0  0  0  0  0  0  0  0  0
  127.2941  134.2718  164.2527 H   0  0  0  0  0  0  0  0  0  0  0  0
  129.4005  135.4546  164.2109 H   0  0  0  0  0  0  0  0  0  0  0  0
  128.5788  137.0361  164.2340 H   0  0  0  0  0  0  0  0  0  0  0  0
  128.2341  134.9705  162.0104 H   0  0  0  0  0  0  0  0  0  0  0  0
  128.3720  135.1002  160.0410 H   0  0  0  0  0  0  0  0  0  0  0  0
  130.0552  134.5363  158.0504 H   0  0  0  0  0  0  0  0  0  0  0  0
  130.9709  133.8831  159.4299 H   0  0  0  0  0  0  0  0  0  0  0  0
  129.0524  132.4244  160.0128 H   0  0  0  0  0  0  0  0  0  0  0  0
  128.1366  133.0776  158.6333 H   0  0  0  0  0  0  0  0  0  0  0  0
  130.1010  130.2668  159.4756 H   0  0  0  0  0  0  0  0  0  0  0  0
  131.7329  129.4157  157.6277 H   0  0  0  0  0  0  0  0  0  0  0  0
  130.1039  129.1604  156.9297 H   0  0  0  0  0  0  0  0  0  0  0  0
  132.1140  131.3551  156.3375 H   0  0  0  0  0  0  0  0  0  0  0  0
  130.9071  130.5973  155.2450 H   0  0  0  0  0  0  0  0  0  0  0  0
  129.1454  131.9426  156.0498 H   0  0  0  0  0  0  0  0  0  0  0  0
  130.4799  133.0598  156.4702 H   0  0  0  0  0  0  0  0  0  0  0  0
  131.4081  136.4876  159.1346 H   0  0  0  0  0  0  0  0  0  0  0  0
  134.0359  136.3963  159.6518 H   0  0  0  0  0  0  0  0  0  0  0  0
  133.2916  137.9964  159.4002 H   0  0  0  0  0  0  0  0  0  0  0  0
  134.2549  138.8455  161.4499 H   0  0  0  0  0  0  0  0  0  0  0  0
  135.5605  138.0649  160.5302 H   0  0  0  0  0  0  0  0  0  0  0  0
  136.7354  138.0152  162.7023 H   0  0  0  0  0  0  0  0  0  0  0  0
  137.2763  136.6066  164.6410 H   0  0  0  0  0  0  0  0  0  0  0  0
  135.7587  134.7733  165.2884 H   0  0  0  0  0  0  0  0  0  0  0  0
  133.7161  134.3595  163.9876 H   0  0  0  0  0  0  0  0  0  0  0  0
  132.0078  135.4253  162.5599 H   0  0  0  0  0  0  0  0  0  0  0  0
  132.9710  134.7774  161.2142 H   0  0  0  0  0  0  0  0  0  0  0  0
  127.5875  137.9464  162.1036 H   0  0  0  0  0  0  0  0  0  0  0  0
  127.1324  136.7829  160.8386 H   0  0  0  0  0  0  0  0  0  0  0  0
  125.2384  136.9113  162.2540 H   0  0  0  0  0  0  0  0  0  0  0  0
  1  2  2  0
  2 30  1  0
  2  3  1  0
  3  4  1  0
  3 31  1  0
  3 32  1  0
  4  5  1  0
  4 33  1  0
  4 34  1  0
  5  6  1  0
  5 29  1  0
  5 35  1  6
  6  7  1  0
  8  6  2  0
  8  9  1  0
  8 17  1  0
  9 10  1  0
  9 36  1  0
 10 11  1  0
 10 37  1  0
 10 38  1  0
 11 12  1  0
 11 39  1  0
 11 40  1  0
 12 16  1  0
 12 13  2  0
 13 14  1  0
 13 41  1  0
 14 15  1  0
 14 42  1  0
 14 43  1  0
 15 16  1  0
 15 44  1  0
 15 45  1  0
 16 46  1  0
 16 47  1  0
 17 18  1  0
 17 48  1  0
 18 19  1  1
 18 28  1  0
 18 20  1  0
 20 21  1  0
 20 49  1  0
 20 50  1  0
 21 22  1  0
 21 51  1  0
 21 52  1  0
 22 27  2  0
 22 23  1  0
 23 24  2  0
 23 53  1  0
 24 25  1  0
 24 54  1  0
 25 26  2  0
 25 55  1  0
 26 27  1  0
 26 56  1  0
 27 28  1  0
 28 57  1  0
 28 58  1  0
 29 30  1  0
 29 59  1  0
 29 60  1  0
 30 61  1  0
M  CHG  1   6   1
M  END
>  <DOCK_score>  (1) 
-44.647091

>  <SMILES>  (1) 
O=C1CCC([NH+]=C(NCCC2=CCCC2)N[C@@H]2CCc3ccccc3C2)CN1

$$$$
