CC(NC(N[C@H]1Cc2ccc(Br)cc2C1)=[NH+][C@H]1CCC(=O)NC1)c1cc2ccccc2[nH]1
     RDKit          3D

 61 65  0  0  1  0  0  0  0  0999 V2000
  132.6930  133.7277  161.5834 C   0  0  0  0  0  0  0  0  0  0  0  0
  131.5818  134.6426  161.0646 C   0  0  2  0  0  0  0  0  0  0  0  0
  131.1237  134.1623  159.7585 N   0  0  0  0  0  0  0  0  0  0  0  0
  129.8217  134.3685  159.3684 C   0  0  0  0  0  0  0  0  0  0  0  0
  129.3917  133.9178  158.1427 N   0  0  0  0  0  0  0  0  0  0  0  0
  130.3212  133.2177  157.2526 C   0  0  1  0  0  0  0  0  0  0  0  0
  131.3415  133.5688  157.4069 H   0  0  0  0  0  0  0  0  0  0  0  0
  130.2260  131.6902  157.4516 C   0  0  0  0  0  0  0  0  0  0  0  0
  130.4370  131.0975  156.0749 C   0  0  0  0  0  0  0  0  0  0  0  0
  130.7668  129.8071  155.6943 C   0  0  0  0  0  0  0  0  0  0  0  0
  130.9086  129.4913  154.3576 C   0  0  0  0  0  0  0  0  0  0  0  0
  130.7212  130.4665  153.3943 C   0  0  0  0  0  0  0  0  0  0  0  0
  130.9138  130.0376  151.5628 Br  0  0  0  0  0  0  0  0  0  0  0  0
  130.3925  131.7545  153.7725 C   0  0  0  0  0  0  0  0  0  0  0  0
  130.2497  132.0721  155.1127 C   0  0  0  0  0  0  0  0  0  0  0  0
  129.9001  133.3865  155.7773 C   0  0  0  0  0  0  0  0  0  0  0  0
  128.9948  134.9913  160.1605 N   0  0  0  0  0  0  0  0  0  0  0  0
  129.3263  135.6642  160.7755 H   0  0  0  0  0  0  0  0  0  0  0  0
  127.5649  134.6749  160.1219 C   0  0  1  0  0  0  0  0  0  0  0  0
  127.1706  134.8741  159.1255 H   0  0  0  0  0  0  0  0  0  0  0  0
  127.3554  133.1966  160.4719 C   0  0  0  0  0  0  0  0  0  0  0  0
  125.8815  132.8503  160.2469 C   0  0  0  0  0  0  0  0  0  0  0  0
  125.0099  133.8785  160.9090 C   0  0  0  0  0  0  0  0  0  0  0  0
  123.8469  133.6005  161.1114 O   0  0  0  0  0  0  0  0  0  0  0  0
  125.4432  135.0799  161.2868 N   0  0  0  0  0  0  0  0  0  0  0  0
  126.8221  135.5312  161.1483 C   0  0  0  0  0  0  0  0  0  0  0  0
  132.1110  136.0468  160.9259 C   0  0  0  0  0  0  0  0  0  0  0  0
  133.1367  136.4097  160.1396 C   0  0  0  0  0  0  0  0  0  0  0  0
  133.3121  137.8547  160.3042 C   0  0  0  0  0  0  0  0  0  0  0  0
  134.1923  138.7935  159.7624 C   0  0  0  0  0  0  0  0  0  0  0  0
  134.0987  140.1047  160.1344 C   0  0  0  0  0  0  0  0  0  0  0  0
  133.1355  140.5117  161.0474 C   0  0  0  0  0  0  0  0  0  0  0  0
  132.2567  139.6025  161.5938 C   0  0  0  0  0  0  0  0  0  0  0  0
  132.3338  138.2621  161.2295 C   0  0  0  0  0  0  0  0  0  0  0  0
  131.6211  137.1398  161.5874 N   0  0  0  0  0  0  0  0  0  0  0  0
  130.8815  137.1261  162.2149 H   0  0  0  0  0  0  0  0  0  0  0  0
  133.5581  133.7968  160.9239 H   0  0  0  0  0  0  0  0  0  0  0  0
  132.9776  134.0361  162.5893 H   0  0  0  0  0  0  0  0  0  0  0  0
  132.3351  132.6984  161.6064 H   0  0  0  0  0  0  0  0  0  0  0  0
  130.7484  134.6361  161.7668 H   0  0  0  0  0  0  0  0  0  0  0  0
  131.7391  133.6988  159.1691 H   0  0  0  0  0  0  0  0  0  0  0  0
  128.4731  134.0633  157.8675 H   0  0  0  0  0  0  0  0  0  0  0  0
  131.0044  131.3484  158.1338 H   0  0  0  0  0  0  0  0  0  0  0  0
  129.2417  131.4191  157.8333 H   0  0  0  0  0  0  0  0  0  0  0  0
  130.9136  129.0454  156.4456 H   0  0  0  0  0  0  0  0  0  0  0  0
  131.1651  128.4841  154.0643 H   0  0  0  0  0  0  0  0  0  0  0  0
  130.2463  132.5156  153.0203 H   0  0  0  0  0  0  0  0  0  0  0  0
  128.8282  133.5715  155.7087 H   0  0  0  0  0  0  0  0  0  0  0  0
  130.4559  134.2030  155.3163 H   0  0  0  0  0  0  0  0  0  0  0  0
  127.6171  133.0262  161.5163 H   0  0  0  0  0  0  0  0  0  0  0  0
  127.9805  132.5751  159.8310 H   0  0  0  0  0  0  0  0  0  0  0  0
  125.6729  132.8335  159.1771 H   0  0  0  0  0  0  0  0  0  0  0  0
  125.6711  131.8691  160.6723 H   0  0  0  0  0  0  0  0  0  0  0  0
  124.8014  135.6929  161.6782 H   0  0  0  0  0  0  0  0  0  0  0  0
  127.3247  135.4548  162.1125 H   0  0  0  0  0  0  0  0  0  0  0  0
  126.8298  136.5714  160.8228 H   0  0  0  0  0  0  0  0  0  0  0  0
  133.7205  135.7599  159.5045 H   0  0  0  0  0  0  0  0  0  0  0  0
  134.9447  138.4840  159.0521 H   0  0  0  0  0  0  0  0  0  0  0  0
  134.7799  140.8305  159.7150 H   0  0  0  0  0  0  0  0  0  0  0  0
  133.0743  141.5516  161.3322 H   0  0  0  0  0  0  0  0  0  0  0  0
  131.5103  139.9290  162.3029 H   0  0  0  0  0  0  0  0  0  0  0  0
  1  2  1  0
  1 37  1  0
  1 38  1  0
  1 39  1  0
  2  3  1  0
  2 27  1  0
  2 40  1  1
  3 41  1  0
  4  3  1  0
  4  5  1  0
  4 17  2  0
  5  6  1  0
  5 42  1  0
  6  7  1  6
  6 16  1  0
  6  8  1  0
  8  9  1  0
  8 43  1  0
  8 44  1  0
  9 15  2  0
  9 10  1  0
 10 11  2  0
 10 45  1  0
 11 12  1  0
 11 46  1  0
 12 13  1  0
 12 14  2  0
 14 15  1  0
 14 47  1  0
 15 16  1  0
 16 48  1  0
 16 49  1  0
 17 18  1  0
 17 19  1  0
 19 20  1  6
 19 26  1  0
 19 21  1  0
 21 22  1  0
 21 50  1  0
 21 51  1  0
 22 23  1  0
 22 52  1  0
 22 53  1  0
 23 24  2  0
 23 25  1  0
 25 26  1  0
 25 54  1  0
 26 55  1  0
 26 56  1  0
 27 35  1  0
 27 28  2  0
 28 29  1  0
 28 57  1  0
 29 34  2  0
 29 30  1  0
 30 31  2  0
 30 58  1  0
 31 32  1  0
 31 59  1  0
 32 33  2  0
 32 60  1  0
 33 34  1  0
 33 61  1  0
 34 35  1  0
 35 36  1  0
M  CHG  1  17   1
M  END
>  <DOCK_score>  (1) 
-48.672802

>  <SMILES>  (1) 
CC(NC(N[C@H]1Cc2ccc(Br)cc2C1)=[NH+][C@H]1CCC(=O)NC1)c1cc2ccccc2[nH]1

$$$$
