CCOC(=O)c1oc2ccc(-c3ccc4cc[nH]c4c3C)cc2c1C[NH2+][C@@H]1C=CCC1
     RDKit          3D

 58 62  0  0  1  0  0  0  0  0999 V2000
  125.9819  133.0779  162.1829 C   0  0  0  0  0  0  0  0  0  0  0  0
  125.7438  134.0875  161.0581 C   0  0  0  0  0  0  0  0  0  0  0  0
  126.9494  134.8681  160.8454 O   0  0  0  0  0  0  0  0  0  0  0  0
  127.0774  136.0042  161.5606 C   0  0  0  0  0  0  0  0  0  0  0  0
  126.2047  136.3330  162.3407 O   0  0  0  0  0  0  0  0  0  0  0  0
  128.2704  136.8440  161.3973 C   0  0  0  0  0  0  0  0  0  0  0  0
  128.3054  138.1832  161.5588 O   0  0  0  0  0  0  0  0  0  0  0  0
  129.5445  138.6626  161.3322 C   0  0  0  0  0  0  0  0  0  0  0  0
  130.0872  139.9431  161.3631 C   0  0  0  0  0  0  0  0  0  0  0  0
  131.4092  140.1379  161.0832 C   0  0  0  0  0  0  0  0  0  0  0  0
  132.2391  139.0584  160.7606 C   0  0  0  0  0  0  0  0  0  0  0  0
  133.6731  139.2898  160.4596 C   0  0  0  0  0  0  0  0  0  0  0  0
  134.0748  139.5477  159.1444 C   0  0  0  0  0  0  0  0  0  0  0  0
  135.3897  139.7632  158.8540 C   0  0  0  0  0  0  0  0  0  0  0  0
  136.3443  139.7262  159.8743 C   0  0  0  0  0  0  0  0  0  0  0  0
  137.7970  139.9086  159.9117 C   0  0  0  0  0  0  0  0  0  0  0  0
  138.1794  139.7576  161.1901 C   0  0  0  0  0  0  0  0  0  0  0  0
  137.0902  139.4933  161.9749 N   0  0  0  0  0  0  0  0  0  0  0  0
  137.1162  139.3460  162.9333 H   0  0  0  0  0  0  0  0  0  0  0  0
  135.9510  139.4670  161.2007 C   0  0  0  0  0  0  0  0  0  0  0  0
  134.6083  139.2547  161.4860 C   0  0  0  0  0  0  0  0  0  0  0  0
  134.1688  138.9827  162.9016 C   0  0  0  0  0  0  0  0  0  0  0  0
  131.7213  137.7713  160.7228 C   0  0  0  0  0  0  0  0  0  0  0  0
  130.3702  137.5687  161.0088 C   0  0  0  0  0  0  0  0  0  0  0  0
  129.5068  136.3895  161.0635 C   0  0  0  0  0  0  0  0  0  0  0  0
  129.9059  134.9609  160.7974 C   0  0  0  0  0  0  0  0  0  0  0  0
  129.7344  134.6624  159.3693 N   0  0  0  0  0  0  0  0  0  0  0  0
  130.3157  135.2813  158.8242 H   0  0  0  0  0  0  0  0  0  0  0  0
  128.7679  134.7952  159.1116 H   0  0  0  0  0  0  0  0  0  0  0  0
  130.1236  133.2698  159.1099 C   0  0  2  0  0  0  0  0  0  0  0  0
  131.0114  133.0108  159.6868 H   0  0  0  0  0  0  0  0  0  0  0  0
  130.3715  133.0586  157.6345 C   0  0  0  0  0  0  0  0  0  0  0  0
  129.8150  131.9514  157.2161 C   0  0  0  0  0  0  0  0  0  0  0  0
  129.1055  131.2428  158.3465 C   0  0  0  0  0  0  0  0  0  0  0  0
  128.9593  132.3121  159.4539 C   0  0  0  0  0  0  0  0  0  0  0  0
  126.2374  133.6089  163.0997 H   0  0  0  0  0  0  0  0  0  0  0  0
  125.0768  132.4918  162.3426 H   0  0  0  0  0  0  0  0  0  0  0  0
  126.8010  132.4135  161.9073 H   0  0  0  0  0  0  0  0  0  0  0  0
  124.9247  134.7518  161.3337 H   0  0  0  0  0  0  0  0  0  0  0  0
  125.4882  133.5565  160.1412 H   0  0  0  0  0  0  0  0  0  0  0  0
  129.4601  140.7871  161.6101 H   0  0  0  0  0  0  0  0  0  0  0  0
  131.8191  141.1366  161.1109 H   0  0  0  0  0  0  0  0  0  0  0  0
  133.3391  139.5768  158.3545 H   0  0  0  0  0  0  0  0  0  0  0  0
  135.6930  139.9623  157.8369 H   0  0  0  0  0  0  0  0  0  0  0  0
  138.4393  140.1231  159.0704 H   0  0  0  0  0  0  0  0  0  0  0  0
  139.1962  139.8336  161.5462 H   0  0  0  0  0  0  0  0  0  0  0  0
  134.1934  137.9093  163.0896 H   0  0  0  0  0  0  0  0  0  0  0  0
  134.8415  139.4884  163.5943 H   0  0  0  0  0  0  0  0  0  0  0  0
  133.1539  139.3536  163.0446 H   0  0  0  0  0  0  0  0  0  0  0  0
  132.3575  136.9346  160.4746 H   0  0  0  0  0  0  0  0  0  0  0  0
  129.2778  134.2924  161.3863 H   0  0  0  0  0  0  0  0  0  0  0  0
  130.9500  134.8175  161.0757 H   0  0  0  0  0  0  0  0  0  0  0  0
  130.9344  133.7336  157.0068 H   0  0  0  0  0  0  0  0  0  0  0  0
  129.8565  131.5901  156.1991 H   0  0  0  0  0  0  0  0  0  0  0  0
  129.7038  130.4048  158.7043 H   0  0  0  0  0  0  0  0  0  0  0  0
  128.1245  130.8965  158.0212 H   0  0  0  0  0  0  0  0  0  0  0  0
  127.9986  132.8220  159.3811 H   0  0  0  0  0  0  0  0  0  0  0  0
  129.0925  131.8724  160.4424 H   0  0  0  0  0  0  0  0  0  0  0  0
  1  2  1  0
  1 36  1  0
  1 37  1  0
  1 38  1  0
  2  3  1  0
  2 39  1  0
  2 40  1  0
  3  4  1  0
  4  5  2  0
  4  6  1  0
  6 25  2  0
  6  7  1  0
  7  8  1  0
  8 24  2  0
  8  9  1  0
  9 10  2  0
  9 41  1  0
 10 11  1  0
 10 42  1  0
 11 12  1  0
 11 23  2  0
 12 21  1  0
 12 13  2  0
 13 14  1  0
 13 43  1  0
 14 15  2  0
 14 44  1  0
 15 20  1  0
 15 16  1  0
 16 17  2  0
 16 45  1  0
 17 18  1  0
 17 46  1  0
 18 19  1  0
 18 20  1  0
 20 21  2  0
 21 22  1  0
 22 47  1  0
 22 48  1  0
 22 49  1  0
 23 24  1  0
 23 50  1  0
 24 25  1  0
 25 26  1  0
 26 27  1  0
 26 51  1  0
 26 52  1  0
 27 28  1  0
 27 29  1  0
 27 30  1  0
 30 31  1  1
 30 35  1  0
 30 32  1  0
 32 33  2  0
 32 53  1  0
 33 34  1  0
 33 54  1  0
 34 35  1  0
 34 55  1  0
 34 56  1  0
 35 57  1  0
 35 58  1  0
M  CHG  1  27   1
M  END
>  <DOCK_score>  (1) 
-42.905266

>  <SMILES>  (1) 
CCOC(=O)c1oc2ccc(-c3ccc4cc[nH]c4c3C)cc2c1C[NH2+][C@@H]1C=CCC1

$$$$
