C/C=C/C(C)[NH2+]C1=CCC[C@@H]1Nc1c[nH]c(NC(CC2CCC2)c2ccccc2)n1
     RDKit          3D

 66 69  0  0  1  0  0  0  0  0999 V2000
  134.0219  138.9654  160.2314 C   0  0  0  0  0  0  0  0  0  0  0  0
  133.5393  137.5495  160.0491 C   0  0  0  0  0  0  0  0  0  0  0  0
  132.7608  137.0018  160.9491 C   0  0  0  0  0  0  0  0  0  0  0  0
  132.2783  135.5860  160.7670 C   0  0  1  0  0  0  0  0  0  0  0  0
  132.0683  134.9383  162.1371 C   0  0  0  0  0  0  0  0  0  0  0  0
  131.0082  135.5925  160.0286 N   0  0  0  0  0  0  0  0  0  0  0  0
  131.0488  136.2849  159.2958 H   0  0  0  0  0  0  0  0  0  0  0  0
  130.2533  135.8149  160.6602 H   0  0  0  0  0  0  0  0  0  0  0  0
  130.7894  134.3314  159.4666 C   0  0  0  0  0  0  0  0  0  0  0  0
  131.5875  133.7569  158.6083 C   0  0  0  0  0  0  0  0  0  0  0  0
  131.0615  132.4008  158.1993 C   0  0  0  0  0  0  0  0  0  0  0  0
  129.5780  132.4065  158.6360 C   0  0  0  0  0  0  0  0  0  0  0  0
  129.5981  133.4540  159.7733 C   0  0  2  0  0  0  0  0  0  0  0  0
  129.7237  132.9638  160.7388 H   0  0  0  0  0  0  0  0  0  0  0  0
  128.3649  134.2449  159.7605 N   0  0  0  0  0  0  0  0  0  0  0  0
  127.9095  134.8545  160.9406 C   0  0  0  0  0  0  0  0  0  0  0  0
  126.7982  135.6099  161.0627 C   0  0  0  0  0  0  0  0  0  0  0  0
  126.7266  136.0038  162.3868 N   0  0  0  0  0  0  0  0  0  0  0  0
  126.0373  136.5558  162.7882 H   0  0  0  0  0  0  0  0  0  0  0  0
  127.8090  135.4759  163.0174 C   0  0  0  0  0  0  0  0  0  0  0  0
  128.1209  135.6347  164.3571 N   0  0  0  0  0  0  0  0  0  0  0  0
  127.2470  136.4296  165.2234 C   0  0  1  0  0  0  0  0  0  0  0  0
  127.8149  136.4453  166.6441 C   0  0  0  0  0  0  0  0  0  0  0  0
  127.4455  135.1421  167.3555 C   0  0  0  0  0  0  0  0  0  0  0  0
  126.0298  135.1477  167.9557 C   0  0  0  0  0  0  0  0  0  0  0  0
  126.6257  134.4120  169.1675 C   0  0  0  0  0  0  0  0  0  0  0  0
  127.9717  135.0572  168.7980 C   0  0  0  0  0  0  0  0  0  0  0  0
  127.1675  137.8400  164.6985 C   0  0  0  0  0  0  0  0  0  0  0  0
  126.0209  138.5868  164.8946 C   0  0  0  0  0  0  0  0  0  0  0  0
  125.9500  139.8824  164.4178 C   0  0  0  0  0  0  0  0  0  0  0  0
  127.0213  140.4271  163.7350 C   0  0  0  0  0  0  0  0  0  0  0  0
  128.1659  139.6785  163.5343 C   0  0  0  0  0  0  0  0  0  0  0  0
  128.2390  138.3849  164.0161 C   0  0  0  0  0  0  0  0  0  0  0  0
  128.5093  134.7908  162.1437 N   0  0  0  0  0  0  0  0  0  0  0  0
  133.1653  139.6376  160.2825 H   0  0  0  0  0  0  0  0  0  0  0  0
  134.5960  139.0376  161.1551 H   0  0  0  0  0  0  0  0  0  0  0  0
  134.6535  139.2454  159.3883 H   0  0  0  0  0  0  0  0  0  0  0  0
  133.8354  136.9862  159.1765 H   0  0  0  0  0  0  0  0  0  0  0  0
  132.4648  137.5651  161.8218 H   0  0  0  0  0  0  0  0  0  0  0  0
  133.0212  135.0181  160.2067 H   0  0  0  0  0  0  0  0  0  0  0  0
  131.2372  135.4263  162.6462 H   0  0  0  0  0  0  0  0  0  0  0  0
  131.8440  133.8794  162.0080 H   0  0  0  0  0  0  0  0  0  0  0  0
  132.9743  135.0477  162.7333 H   0  0  0  0  0  0  0  0  0  0  0  0
  132.5056  134.1921  158.2419 H   0  0  0  0  0  0  0  0  0  0  0  0
  131.1390  132.2731  157.1197 H   0  0  0  0  0  0  0  0  0  0  0  0
  131.6077  131.6105  158.7146 H   0  0  0  0  0  0  0  0  0  0  0  0
  128.9312  132.7277  157.8195 H   0  0  0  0  0  0  0  0  0  0  0  0
  129.2763  131.4281  159.0096 H   0  0  0  0  0  0  0  0  0  0  0  0
  127.8630  134.3473  158.9368 H   0  0  0  0  0  0  0  0  0  0  0  0
  126.0984  135.8578  160.2783 H   0  0  0  0  0  0  0  0  0  0  0  0
  128.9181  135.2196  164.7220 H   0  0  0  0  0  0  0  0  0  0  0  0
  126.2499  135.9896  165.2357 H   0  0  0  0  0  0  0  0  0  0  0  0
  128.8998  136.5409  166.6007 H   0  0  0  0  0  0  0  0  0  0  0  0
  127.3974  137.2897  167.1928 H   0  0  0  0  0  0  0  0  0  0  0  0
  127.6644  134.2572  166.7579 H   0  0  0  0  0  0  0  0  0  0  0  0
  125.6587  136.1456  168.1899 H   0  0  0  0  0  0  0  0  0  0  0  0
  125.3137  134.5506  167.3911 H   0  0  0  0  0  0  0  0  0  0  0  0
  126.6190  133.3268  169.0659 H   0  0  0  0  0  0  0  0  0  0  0  0
  126.2274  134.7499  170.1243 H   0  0  0  0  0  0  0  0  0  0  0  0
  128.8234  134.3869  168.9133 H   0  0  0  0  0  0  0  0  0  0  0  0
  128.1316  136.0302  169.2624 H   0  0  0  0  0  0  0  0  0  0  0  0
  125.1821  138.1595  165.4239 H   0  0  0  0  0  0  0  0  0  0  0  0
  125.0558  140.4673  164.5749 H   0  0  0  0  0  0  0  0  0  0  0  0
  126.9642  141.4379  163.3586 H   0  0  0  0  0  0  0  0  0  0  0  0
  129.0029  140.1042  163.0008 H   0  0  0  0  0  0  0  0  0  0  0  0
  129.1331  137.7999  163.8590 H   0  0  0  0  0  0  0  0  0  0  0  0
  1  2  1  0
  1 35  1  0
  1 36  1  0
  1 37  1  0
  2  3  2  0
  2 38  1  0
  3  4  1  0
  3 39  1  0
  4  5  1  0
  4  6  1  0
  4 40  1  6
  5 41  1  0
  5 42  1  0
  5 43  1  0
  6  7  1  0
  6  8  1  0
  6  9  1  0
  9 13  1  0
  9 10  2  0
 10 11  1  0
 10 44  1  0
 11 12  1  0
 11 45  1  0
 11 46  1  0
 12 13  1  0
 12 47  1  0
 12 48  1  0
 13 14  1  1
 13 15  1  0
 15 16  1  0
 15 49  1  0
 16 34  1  0
 16 17  2  0
 17 18  1  0
 17 50  1  0
 18 19  1  0
 18 20  1  0
 20 21  1  0
 20 34  2  0
 21 22  1  0
 21 51  1  0
 22 23  1  0
 22 28  1  0
 22 52  1  1
 23 24  1  0
 23 53  1  0
 23 54  1  0
 24 27  1  0
 24 25  1  0
 24 55  1  0
 25 26  1  0
 25 56  1  0
 25 57  1  0
 26 27  1  0
 26 58  1  0
 26 59  1  0
 27 60  1  0
 27 61  1  0
 28 33  1  0
 28 29  2  0
 29 30  1  0
 29 62  1  0
 30 31  2  0
 30 63  1  0
 31 32  1  0
 31 64  1  0
 32 33  2  0
 32 65  1  0
 33 66  1  0
M  CHG  1   6   1
M  END
>  <DOCK_score>  (1) 
-42.660248

>  <SMILES>  (1) 
C/C=C/C(C)[NH2+]C1=CCC[C@@H]1Nc1c[nH]c(NC(CC2CCC2)c2ccccc2)n1

$$$$
