C[C@@H](Cc1ccc(Oc2ccccc2)cc1)Nc1[nH]cc(-c2cccc(O)c2)[nH+]1
     RDKit          3D

 53 56  0  0  1  0  0  0  0  0999 V2000
  132.6060  133.3648  161.2055 C   0  0  0  0  0  0  0  0  0  0  0  0
  132.0179  134.7770  161.2302 C   0  0  1  0  0  0  0  0  0  0  0  0
  131.2520  134.8382  162.0034 H   0  0  0  0  0  0  0  0  0  0  0  0
  133.1279  135.7863  161.5306 C   0  0  0  0  0  0  0  0  0  0  0  0
  132.5486  137.1773  161.5548 C   0  0  0  0  0  0  0  0  0  0  0  0
  132.0666  137.7037  162.7391 C   0  0  0  0  0  0  0  0  0  0  0  0
  131.5405  138.9807  162.7653 C   0  0  0  0  0  0  0  0  0  0  0  0
  131.4858  139.7312  161.5995 C   0  0  0  0  0  0  0  0  0  0  0  0
  130.9644  140.9858  161.6215 O   0  0  0  0  0  0  0  0  0  0  0  0
  129.8008  141.1814  162.2957 C   0  0  0  0  0  0  0  0  0  0  0  0
  129.6635  142.2711  163.1437 C   0  0  0  0  0  0  0  0  0  0  0  0
  128.4777  142.4705  163.8237 C   0  0  0  0  0  0  0  0  0  0  0  0
  127.4318  141.5795  163.6679 C   0  0  0  0  0  0  0  0  0  0  0  0
  127.5680  140.4897  162.8279 C   0  0  0  0  0  0  0  0  0  0  0  0
  128.7498  140.2885  162.1415 C   0  0  0  0  0  0  0  0  0  0  0  0
  131.9649  139.1985  160.4111 C   0  0  0  0  0  0  0  0  0  0  0  0
  132.4948  137.9230  160.3917 C   0  0  0  0  0  0  0  0  0  0  0  0
  131.4215  135.0804  159.9270 N   0  0  0  0  0  0  0  0  0  0  0  0
  130.0912  134.7806  159.6879 C   0  0  0  0  0  0  0  0  0  0  0  0
  129.4217  135.0171  158.5269 N   0  0  0  0  0  0  0  0  0  0  0  0
  129.7875  135.4221  157.7249 H   0  0  0  0  0  0  0  0  0  0  0  0
  128.1330  134.5738  158.6993 C   0  0  0  0  0  0  0  0  0  0  0  0
  128.0500  134.0868  159.9621 C   0  0  0  0  0  0  0  0  0  0  0  0
  126.8418  133.5040  160.5954 C   0  0  0  0  0  0  0  0  0  0  0  0
  126.8572  132.1859  161.0493 C   0  0  0  0  0  0  0  0  0  0  0  0
  125.7334  131.6476  161.6429 C   0  0  0  0  0  0  0  0  0  0  0  0
  124.5874  132.4090  161.7800 C   0  0  0  0  0  0  0  0  0  0  0  0
  124.5620  133.7203  161.3255 C   0  0  0  0  0  0  0  0  0  0  0  0
  123.4331  134.4646  161.4615 O   0  0  0  0  0  0  0  0  0  0  0  0
  125.6871  134.2703  160.7332 C   0  0  0  0  0  0  0  0  0  0  0  0
  129.2675  134.2273  160.5441 N   0  0  0  0  0  0  0  0  0  0  0  0
  129.4923  133.9615  161.4494 H   0  0  0  0  0  0  0  0  0  0  0  0
  131.8152  132.6456  160.9916 H   0  0  0  0  0  0  0  0  0  0  0  0
  133.0497  133.1390  162.1752 H   0  0  0  0  0  0  0  0  0  0  0  0
  133.3718  133.3035  160.4323 H   0  0  0  0  0  0  0  0  0  0  0  0
  133.5716  135.5606  162.5002 H   0  0  0  0  0  0  0  0  0  0  0  0
  133.8937  135.7251  160.7574 H   0  0  0  0  0  0  0  0  0  0  0  0
  132.1054  137.1176  163.6453 H   0  0  0  0  0  0  0  0  0  0  0  0
  131.1682  139.3931  163.6915 H   0  0  0  0  0  0  0  0  0  0  0  0
  130.4817  142.9648  163.2689 H   0  0  0  0  0  0  0  0  0  0  0  0
  128.3690  143.3205  164.4809 H   0  0  0  0  0  0  0  0  0  0  0  0
  126.5071  141.7349  164.2036 H   0  0  0  0  0  0  0  0  0  0  0  0
  126.7498  139.7949  162.7087 H   0  0  0  0  0  0  0  0  0  0  0  0
  128.8558  139.4370  161.4859 H   0  0  0  0  0  0  0  0  0  0  0  0
  131.9232  139.7804  159.5024 H   0  0  0  0  0  0  0  0  0  0  0  0
  132.8679  137.5079  159.4669 H   0  0  0  0  0  0  0  0  0  0  0  0
  131.9586  135.4914  159.2316 H   0  0  0  0  0  0  0  0  0  0  0  0
  127.3372  134.6097  157.9699 H   0  0  0  0  0  0  0  0  0  0  0  0
  127.7493  131.5872  160.9396 H   0  0  0  0  0  0  0  0  0  0  0  0
  125.7479  130.6278  161.9978 H   0  0  0  0  0  0  0  0  0  0  0  0
  123.7092  131.9820  162.2414 H   0  0  0  0  0  0  0  0  0  0  0  0
  123.5113  135.3643  161.1159 H   0  0  0  0  0  0  0  0  0  0  0  0
  125.6685  135.2904  160.3790 H   0  0  0  0  0  0  0  0  0  0  0  0
  1  2  1  0
  1 33  1  0
  1 34  1  0
  1 35  1  0
  2  3  1  1
  2  4  1  0
  2 18  1  0
  4  5  1  0
  4 36  1  0
  4 37  1  0
  5 17  1  0
  5  6  2  0
  6  7  1  0
  6 38  1  0
  7  8  2  0
  7 39  1  0
  8  9  1  0
  8 16  1  0
  9 10  1  0
 10 15  1  0
 10 11  2  0
 11 12  1  0
 11 40  1  0
 12 13  2  0
 12 41  1  0
 13 14  1  0
 13 42  1  0
 14 15  2  0
 14 43  1  0
 15 44  1  0
 16 17  2  0
 16 45  1  0
 17 46  1  0
 18 47  1  0
 19 18  1  0
 19 31  2  0
 19 20  1  0
 20 21  1  0
 20 22  1  0
 22 23  2  0
 22 48  1  0
 23 24  1  0
 23 31  1  0
 24 30  1  0
 24 25  2  0
 25 26  1  0
 25 49  1  0
 26 27  2  0
 26 50  1  0
 27 28  1  0
 27 51  1  0
 28 29  1  0
 28 30  2  0
 29 52  1  0
 30 53  1  0
 31 32  1  0
M  CHG  1  31   1
M  END
>  <DOCK_score>  (1) 
-54.267845

>  <SMILES>  (1) 
C[C@@H](Cc1ccc(Oc2ccccc2)cc1)Nc1[nH]cc(-c2cccc(O)c2)[nH+]1

$$$$
