Cc1ccc(Br)cc1CNC(NC1CCCC1)=[NH+][C@H]1C[C@@H](O)C1
     RDKit          3D

 50 52  0  0  1  0  0  0  0  0999 V2000
  133.3961  137.6740  160.4552 C   0  0  0  0  0  0  0  0  0  0  0  0
  132.5933  138.7821  161.0863 C   0  0  0  0  0  0  0  0  0  0  0  0
  133.2210  139.7256  161.8784 C   0  0  0  0  0  0  0  0  0  0  0  0
  132.4844  140.7387  162.4622 C   0  0  0  0  0  0  0  0  0  0  0  0
  131.1193  140.8118  162.2497 C   0  0  0  0  0  0  0  0  0  0  0  0
  130.1106  142.1974  163.0487 Br  0  0  0  0  0  0  0  0  0  0  0  0
  130.4926  139.8709  161.4531 C   0  0  0  0  0  0  0  0  0  0  0  0
  131.2303  138.8579  160.8695 C   0  0  0  0  0  0  0  0  0  0  0  0
  130.5474  137.8322  160.0019 C   0  0  0  0  0  0  0  0  0  0  0  0
  130.1055  136.7079  160.8306 N   0  0  0  0  0  0  0  0  0  0  0  0
  129.4529  135.6439  160.2543 C   0  0  0  0  0  0  0  0  0  0  0  0
  129.7251  135.2935  158.9531 N   0  0  0  0  0  0  0  0  0  0  0  0
  129.0296  134.1598  158.3390 C   0  0  0  0  0  0  0  0  0  0  0  0
  129.3767  132.8574  159.0896 C   0  0  0  0  0  0  0  0  0  0  0  0
  129.4637  131.7875  157.9720 C   0  0  0  0  0  0  0  0  0  0  0  0
  130.1271  132.5626  156.8066 C   0  0  0  0  0  0  0  0  0  0  0  0
  129.5062  133.9724  156.8879 C   0  0  0  0  0  0  0  0  0  0  0  0
  128.5761  134.9674  160.9417 N   0  0  0  0  0  0  0  0  0  0  0  0
  128.1155  134.2167  160.5352 H   0  0  0  0  0  0  0  0  0  0  0  0
  128.2861  135.3410  162.3283 C   0  0  1  0  0  0  0  0  0  0  0  0
  129.1635  135.2892  162.9729 H   0  0  0  0  0  0  0  0  0  0  0  0
  127.4988  136.6554  162.4605 C   0  0  0  0  0  0  0  0  0  0  0  0
  126.2176  135.8066  162.3672 C   0  0  1  0  0  0  0  0  0  0  0  0
  125.4273  136.1316  163.0438 H   0  0  0  0  0  0  0  0  0  0  0  0
  125.7578  135.6095  161.0286 O   0  0  0  0  0  0  0  0  0  0  0  0
  127.0508  134.6341  162.9112 C   0  0  0  0  0  0  0  0  0  0  0  0
  133.7537  137.9962  159.4771 H   0  0  0  0  0  0  0  0  0  0  0  0
  134.2473  137.4336  161.0922 H   0  0  0  0  0  0  0  0  0  0  0  0
  132.7679  136.7908  160.3394 H   0  0  0  0  0  0  0  0  0  0  0  0
  134.2867  139.6683  162.0446 H   0  0  0  0  0  0  0  0  0  0  0  0
  132.9742  141.4731  163.0845 H   0  0  0  0  0  0  0  0  0  0  0  0
  129.4270  139.9278  161.2867 H   0  0  0  0  0  0  0  0  0  0  0  0
  131.2454  137.4738  159.2453 H   0  0  0  0  0  0  0  0  0  0  0  0
  129.6843  138.2855  159.5144 H   0  0  0  0  0  0  0  0  0  0  0  0
  130.2733  136.7142  161.7861 H   0  0  0  0  0  0  0  0  0  0  0  0
  130.3777  135.7969  158.4418 H   0  0  0  0  0  0  0  0  0  0  0  0
  127.9528  134.3271  158.3596 H   0  0  0  0  0  0  0  0  0  0  0  0
  130.3350  132.9550  159.5996 H   0  0  0  0  0  0  0  0  0  0  0  0
  128.5893  132.6052  159.7999 H   0  0  0  0  0  0  0  0  0  0  0  0
  128.4689  131.4428  157.6898 H   0  0  0  0  0  0  0  0  0  0  0  0
  130.0874  130.9495  158.2832 H   0  0  0  0  0  0  0  0  0  0  0  0
  129.8874  132.0947  155.8518 H   0  0  0  0  0  0  0  0  0  0  0  0
  131.2071  132.6129  156.9452 H   0  0  0  0  0  0  0  0  0  0  0  0
  128.6605  134.0479  156.2045 H   0  0  0  0  0  0  0  0  0  0  0  0
  130.2543  134.7256  156.6404 H   0  0  0  0  0  0  0  0  0  0  0  0
  127.6267  137.1458  163.4255 H   0  0  0  0  0  0  0  0  0  0  0  0
  127.6378  137.3341  161.6191 H   0  0  0  0  0  0  0  0  0  0  0  0
  125.2332  136.3437  160.6809 H   0  0  0  0  0  0  0  0  0  0  0  0
  126.8273  133.6805  162.4329 H   0  0  0  0  0  0  0  0  0  0  0  0
  127.0570  134.5706  163.9993 H   0  0  0  0  0  0  0  0  0  0  0  0
  1  2  1  0
  1 27  1  0
  1 28  1  0
  1 29  1  0
  2  8  2  0
  2  3  1  0
  3  4  2  0
  3 30  1  0
  4  5  1  0
  4 31  1  0
  5  6  1  0
  5  7  2  0
  7  8  1  0
  7 32  1  0
  8  9  1  0
  9 10  1  0
  9 33  1  0
  9 34  1  0
 10 35  1  0
 11 10  1  0
 11 12  1  0
 11 18  2  0
 12 13  1  0
 12 36  1  0
 13 17  1  0
 13 14  1  0
 13 37  1  0
 14 15  1  0
 14 38  1  0
 14 39  1  0
 15 16  1  0
 15 40  1  0
 15 41  1  0
 16 17  1  0
 16 42  1  0
 16 43  1  0
 17 44  1  0
 17 45  1  0
 18 19  1  0
 18 20  1  0
 20 21  1  1
 20 26  1  0
 20 22  1  0
 22 23  1  0
 22 46  1  0
 22 47  1  0
 23 24  1  1
 23 25  1  0
 23 26  1  0
 25 48  1  0
 26 49  1  0
 26 50  1  0
M  CHG  1  18   1
M  END
>  <DOCK_score>  (1) 
-41.448978

>  <SMILES>  (1) 
Cc1ccc(Br)cc1CNC(NC1CCCC1)=[NH+][C@H]1C[C@@H](O)C1

$$$$
