CC1=C[C@H]1C(=O)N[C@H]1CC[C@H](NC(NC2CC=CC2)=[NH+][C@H]2CCC(=O)NC2)CC1
     RDKit          3D

 63 66  0  0  1  0  0  0  0  0999 V2000
  135.2888  141.2290  164.8373 C   0  0  0  0  0  0  0  0  0  0  0  0
  135.4355  139.7531  165.1041 C   0  0  0  0  0  0  0  0  0  0  0  0
  135.0904  138.7166  165.8271 C   0  0  0  0  0  0  0  0  0  0  0  0
  136.0818  138.4456  164.7249 C   0  0  1  0  0  0  0  0  0  0  0  0
  137.1251  138.2818  164.9945 H   0  0  0  0  0  0  0  0  0  0  0  0
  135.5989  137.7404  163.4837 C   0  0  0  0  0  0  0  0  0  0  0  0
  136.1246  137.9668  162.4143 O   0  0  0  0  0  0  0  0  0  0  0  0
  134.5831  136.8583  163.5617 N   0  0  0  0  0  0  0  0  0  0  0  0
  134.1137  136.1728  162.3550 C   0  0  1  0  0  0  0  0  0  0  0  0
  134.9433  136.0557  161.6577 H   0  0  0  0  0  0  0  0  0  0  0  0
  133.5656  134.7949  162.7318 C   0  0  0  0  0  0  0  0  0  0  0  0
  133.0755  134.0790  161.4715 C   0  0  0  0  0  0  0  0  0  0  0  0
  131.9689  134.9055  160.8133 C   0  0  2  0  0  0  0  0  0  0  0  0
  131.1394  135.0226  161.5105 H   0  0  0  0  0  0  0  0  0  0  0  0
  131.4996  134.2200  159.6065 N   0  0  0  0  0  0  0  0  0  0  0  0
  130.1971  134.3706  159.1931 C   0  0  0  0  0  0  0  0  0  0  0  0
  129.7567  133.7273  158.0607 N   0  0  0  0  0  0  0  0  0  0  0  0
  130.6753  132.8814  157.2946 C   0  0  0  0  0  0  0  0  0  0  0  0
  130.1889  132.7124  155.8365 C   0  0  0  0  0  0  0  0  0  0  0  0
  130.5265  131.2819  155.4831 C   0  0  0  0  0  0  0  0  0  0  0  0
  130.7720  130.5781  156.5546 C   0  0  0  0  0  0  0  0  0  0  0  0
  130.6385  131.4210  157.8016 C   0  0  0  0  0  0  0  0  0  0  0  0
  129.3798  135.1231  159.8747 N   0  0  0  0  0  0  0  0  0  0  0  0
  129.7201  135.8855  160.3686 H   0  0  0  0  0  0  0  0  0  0  0  0
  127.9471  134.8177  159.8947 C   0  0  1  0  0  0  0  0  0  0  0  0
  127.5491  134.8531  158.8806 H   0  0  0  0  0  0  0  0  0  0  0  0
  127.7273  133.4197  160.4852 C   0  0  0  0  0  0  0  0  0  0  0  0
  126.2508  133.0531  160.3317 C   0  0  0  0  0  0  0  0  0  0  0  0
  125.3884  134.1845  160.8130 C   0  0  0  0  0  0  0  0  0  0  0  0
  124.2245  133.9528  161.0632 O   0  0  0  0  0  0  0  0  0  0  0  0
  125.8352  135.4291  160.9852 N   0  0  0  0  0  0  0  0  0  0  0  0
  127.2171  135.8386  160.7684 C   0  0  0  0  0  0  0  0  0  0  0  0
  132.5169  136.2834  160.4366 C   0  0  0  0  0  0  0  0  0  0  0  0
  133.0071  136.9993  161.6967 C   0  0  0  0  0  0  0  0  0  0  0  0
  134.4802  141.3907  164.1245 H   0  0  0  0  0  0  0  0  0  0  0  0
  135.0603  141.7458  165.7694 H   0  0  0  0  0  0  0  0  0  0  0  0
  136.2198  141.6181  164.4251 H   0  0  0  0  0  0  0  0  0  0  0  0
  134.5026  138.3267  166.6450 H   0  0  0  0  0  0  0  0  0  0  0  0
  134.1626  136.6772  164.4169 H   0  0  0  0  0  0  0  0  0  0  0  0
  132.7361  134.9119  163.4289 H   0  0  0  0  0  0  0  0  0  0  0  0
  134.3540  134.2061  163.2007 H   0  0  0  0  0  0  0  0  0  0  0  0
  132.6852  133.0973  161.7399 H   0  0  0  0  0  0  0  0  0  0  0  0
  133.9051  133.9619  160.7742 H   0  0  0  0  0  0  0  0  0  0  0  0
  132.1078  133.6599  159.0993 H   0  0  0  0  0  0  0  0  0  0  0  0
  128.8377  133.8336  157.7688 H   0  0  0  0  0  0  0  0  0  0  0  0
  131.6890  133.2807  157.3252 H   0  0  0  0  0  0  0  0  0  0  0  0
  129.1130  132.8751  155.7737 H   0  0  0  0  0  0  0  0  0  0  0  0
  130.7171  133.4018  155.1777 H   0  0  0  0  0  0  0  0  0  0  0  0
  130.5604  130.8934  154.4759 H   0  0  0  0  0  0  0  0  0  0  0  0
  131.0361  129.5309  156.5505 H   0  0  0  0  0  0  0  0  0  0  0  0
  131.4722  131.2327  158.4780 H   0  0  0  0  0  0  0  0  0  0  0  0
  129.6915  131.2161  158.3009 H   0  0  0  0  0  0  0  0  0  0  0  0
  128.3436  132.6954  159.9527 H   0  0  0  0  0  0  0  0  0  0  0  0
  127.9938  133.4217  161.5421 H   0  0  0  0  0  0  0  0  0  0  0  0
  126.0349  132.1591  160.9166 H   0  0  0  0  0  0  0  0  0  0  0  0
  126.0375  132.8570  159.2809 H   0  0  0  0  0  0  0  0  0  0  0  0
  125.2007  136.1041  161.2725 H   0  0  0  0  0  0  0  0  0  0  0  0
  127.2317  136.8107  160.2754 H   0  0  0  0  0  0  0  0  0  0  0  0
  127.7243  135.9181  161.7300 H   0  0  0  0  0  0  0  0  0  0  0  0
  133.3465  136.1662  159.7393 H   0  0  0  0  0  0  0  0  0  0  0  0
  131.7285  136.8721  159.9676 H   0  0  0  0  0  0  0  0  0  0  0  0
  132.1775  137.1164  162.3941 H   0  0  0  0  0  0  0  0  0  0  0  0
  133.3975  137.9810  161.4285 H   0  0  0  0  0  0  0  0  0  0  0  0
  1  2  1  0
  1 35  1  0
  1 36  1  0
  1 37  1  0
  2  4  1  0
  2  3  2  0
  3  4  1  0
  3 38  1  0
  4  5  1  1
  4  6  1  0
  6  7  2  0
  6  8  1  0
  8  9  1  0
  8 39  1  0
  9 10  1  6
  9 34  1  0
  9 11  1  0
 11 12  1  0
 11 40  1  0
 11 41  1  0
 12 13  1  0
 12 42  1  0
 12 43  1  0
 13 14  1  1
 13 15  1  0
 13 33  1  0
 15 44  1  0
 16 15  1  0
 16 17  1  0
 16 23  2  0
 17 18  1  0
 17 45  1  0
 18 22  1  0
 18 19  1  0
 18 46  1  0
 19 20  1  0
 19 47  1  0
 19 48  1  0
 20 21  2  0
 20 49  1  0
 21 22  1  0
 21 50  1  0
 22 51  1  0
 22 52  1  0
 23 24  1  0
 23 25  1  0
 25 26  1  6
 25 32  1  0
 25 27  1  0
 27 28  1  0
 27 53  1  0
 27 54  1  0
 28 29  1  0
 28 55  1  0
 28 56  1  0
 29 30  2  0
 29 31  1  0
 31 32  1  0
 31 57  1  0
 32 58  1  0
 32 59  1  0
 33 34  1  0
 33 60  1  0
 33 61  1  0
 34 62  1  0
 34 63  1  0
M  CHG  1  23   1
M  END
>  <DOCK_score>  (1) 
-43.841446

>  <SMILES>  (1) 
CC1=C[C@H]1C(=O)N[C@H]1CC[C@H](NC(NC2CC=CC2)=[NH+][C@H]2CCC(=O)NC2)CC1

$$$$
