CC[N@@H+](Cc1cnn(C)c1)Cc1c(C(=O)Nc2ccccc2)[nH]c(C)c1C
     RDKit          3D

 55 57  0  0  1  0  0  0  0  0999 V2000
  129.9604  132.4751  164.1543 C   0  0  0  0  0  0  0  0  0  0  0  0
  128.8045  132.6006  163.1599 C   0  0  0  0  0  0  0  0  0  0  0  0
  129.2620  133.3237  161.9659 N   0  0  1  0  0  0  0  0  0  0  0  0
  128.4999  133.4066  161.3101 H   0  0  0  0  0  0  0  0  0  0  0  0
  129.7238  134.6638  162.3520 C   0  0  0  0  0  0  0  0  0  0  0  0
  128.5893  135.4205  162.9936 C   0  0  0  0  0  0  0  0  0  0  0  0
  127.2744  135.4882  162.5217 C   0  0  0  0  0  0  0  0  0  0  0  0
  126.5825  136.2329  163.3454 N   0  0  0  0  0  0  0  0  0  0  0  0
  127.4390  136.6714  164.3635 N   0  0  0  0  0  0  0  0  0  0  0  0
  127.0695  137.5340  165.4886 C   0  0  0  0  0  0  0  0  0  0  0  0
  128.6643  136.1593  164.1248 C   0  0  0  0  0  0  0  0  0  0  0  0
  130.3681  132.5861  161.3407 C   0  0  0  0  0  0  0  0  0  0  0  0
  130.5137  133.0210  159.9052 C   0  0  0  0  0  0  0  0  0  0  0  0
  131.3046  134.0487  159.4365 C   0  0  0  0  0  0  0  0  0  0  0  0
  132.1608  134.9218  160.2458 C   0  0  0  0  0  0  0  0  0  0  0  0
  132.2177  134.7701  161.4520 O   0  0  0  0  0  0  0  0  0  0  0  0
  132.8848  135.8924  159.6539 N   0  0  0  0  0  0  0  0  0  0  0  0
  133.7014  136.7249  160.4256 C   0  0  0  0  0  0  0  0  0  0  0  0
  133.9498  138.0289  160.0171 C   0  0  0  0  0  0  0  0  0  0  0  0
  134.7524  138.8502  160.7844 C   0  0  0  0  0  0  0  0  0  0  0  0
  135.3173  138.3718  161.9527 C   0  0  0  0  0  0  0  0  0  0  0  0
  135.0762  137.0726  162.3593 C   0  0  0  0  0  0  0  0  0  0  0  0
  134.2703  136.2477  161.5995 C   0  0  0  0  0  0  0  0  0  0  0  0
  131.1445  134.1054  158.0704 N   0  0  0  0  0  0  0  0  0  0  0  0
  131.5816  134.7342  157.4752 H   0  0  0  0  0  0  0  0  0  0  0  0
  130.2745  133.1360  157.6956 C   0  0  0  0  0  0  0  0  0  0  0  0
  129.8269  132.8581  156.2837 C   0  0  0  0  0  0  0  0  0  0  0  0
  129.8769  132.4544  158.7966 C   0  0  0  0  0  0  0  0  0  0  0  0
  128.9164  131.2934  158.8226 C   0  0  0  0  0  0  0  0  0  0  0  0
  130.8051  131.9857  163.6696 H   0  0  0  0  0  0  0  0  0  0  0  0
  130.2595  133.4677  164.4908 H   0  0  0  0  0  0  0  0  0  0  0  0
  129.6399  131.8822  165.0110 H   0  0  0  0  0  0  0  0  0  0  0  0
  127.9838  133.1479  163.6238 H   0  0  0  0  0  0  0  0  0  0  0  0
  128.4620  131.6063  162.8735 H   0  0  0  0  0  0  0  0  0  0  0  0
  130.5474  134.5741  163.0604 H   0  0  0  0  0  0  0  0  0  0  0  0
  130.0635  135.2004  161.4661 H   0  0  0  0  0  0  0  0  0  0  0  0
  126.8951  135.0064  161.6327 H   0  0  0  0  0  0  0  0  0  0  0  0
  127.2159  138.5775  165.2095 H   0  0  0  0  0  0  0  0  0  0  0  0
  126.0227  137.3696  165.7441 H   0  0  0  0  0  0  0  0  0  0  0  0
  127.6951  137.2967  166.3490 H   0  0  0  0  0  0  0  0  0  0  0  0
  129.5468  136.3115  164.7286 H   0  0  0  0  0  0  0  0  0  0  0  0
  130.1583  131.5171  161.3770 H   0  0  0  0  0  0  0  0  0  0  0  0
  131.2931  132.7934  161.8787 H   0  0  0  0  0  0  0  0  0  0  0  0
  132.8395  136.0133  158.6925 H   0  0  0  0  0  0  0  0  0  0  0  0
  133.5125  138.4015  159.1026 H   0  0  0  0  0  0  0  0  0  0  0  0
  134.9423  139.8657  160.4695 H   0  0  0  0  0  0  0  0  0  0  0  0
  135.9485  139.0149  162.5482 H   0  0  0  0  0  0  0  0  0  0  0  0
  135.5189  136.7023  163.2721 H   0  0  0  0  0  0  0  0  0  0  0  0
  134.0830  135.2328  161.9174 H   0  0  0  0  0  0  0  0  0  0  0  0
  130.5013  132.1354  155.8244 H   0  0  0  0  0  0  0  0  0  0  0  0
  128.8149  132.4536  156.2963 H   0  0  0  0  0  0  0  0  0  0  0  0
  129.8409  133.7844  155.7092 H   0  0  0  0  0  0  0  0  0  0  0  0
  127.8996  131.6658  158.9465 H   0  0  0  0  0  0  0  0  0  0  0  0
  128.9893  130.7406  157.8861 H   0  0  0  0  0  0  0  0  0  0  0  0
  129.1658  130.6341  159.6541 H   0  0  0  0  0  0  0  0  0  0  0  0
  1  2  1  0
  1 30  1  0
  1 31  1  0
  1 32  1  0
  2  3  1  0
  2 33  1  0
  2 34  1  0
  3  4  1  6
  3  5  1  0
  3 12  1  0
  5  6  1  0
  5 35  1  0
  5 36  1  0
  6 11  2  0
  6  7  1  0
  7  8  2  0
  7 37  1  0
  8  9  1  0
  9 10  1  0
  9 11  1  0
 10 38  1  0
 10 39  1  0
 10 40  1  0
 11 41  1  0
 12 13  1  0
 12 42  1  0
 12 43  1  0
 13 28  1  0
 13 14  2  0
 14 15  1  0
 14 24  1  0
 15 16  2  0
 15 17  1  0
 17 18  1  0
 17 44  1  0
 18 23  1  0
 18 19  2  0
 19 20  1  0
 19 45  1  0
 20 21  2  0
 20 46  1  0
 21 22  1  0
 21 47  1  0
 22 23  2  0
 22 48  1  0
 23 49  1  0
 24 25  1  0
 24 26  1  0
 26 27  1  0
 26 28  2  0
 27 50  1  0
 27 51  1  0
 27 52  1  0
 28 29  1  0
 29 53  1  0
 29 54  1  0
 29 55  1  0
M  CHG  1   3   1
M  END
>  <DOCK_score>  (1) 
-41.195801

>  <SMILES>  (1) 
CC[N@@H+](Cc1cnn(C)c1)Cc1c(C(=O)Nc2ccccc2)[nH]c(C)c1C

$$$$
