CCc1ccc(-c2c[nH]c(NCc3cn(-c4ccccc4)nc3-c3ccccc3)[nH+]2)cc1
     RDKit          3D

 58 62  0  0  1  0  0  0  0  0999 V2000
  130.3463  128.6865  151.9388 C   0  0  0  0  0  0  0  0  0  0  0  0
  131.4924  129.6561  152.2336 C   0  0  0  0  0  0  0  0  0  0  0  0
  131.2104  130.3915  153.5184 C   0  0  0  0  0  0  0  0  0  0  0  0
  131.6499  129.8698  154.7213 C   0  0  0  0  0  0  0  0  0  0  0  0
  131.3996  130.5416  155.9006 C   0  0  0  0  0  0  0  0  0  0  0  0
  130.6925  131.7424  155.8788 C   0  0  0  0  0  0  0  0  0  0  0  0
  130.4155  132.4663  157.1436 C   0  0  0  0  0  0  0  0  0  0  0  0
  129.7189  131.9847  158.2027 C   0  0  0  0  0  0  0  0  0  0  0  0
  129.7022  132.9765  159.1530 N   0  0  0  0  0  0  0  0  0  0  0  0
  129.2783  132.9302  160.0243 H   0  0  0  0  0  0  0  0  0  0  0  0
  130.3897  134.0361  158.6464 C   0  0  0  0  0  0  0  0  0  0  0  0
  130.6048  135.2412  159.2928 N   0  0  0  0  0  0  0  0  0  0  0  0
  130.0714  135.4551  160.6404 C   0  0  0  0  0  0  0  0  0  0  0  0
  131.2062  135.7380  161.5909 C   0  0  0  0  0  0  0  0  0  0  0  0
  132.3723  135.0597  161.6608 C   0  0  0  0  0  0  0  0  0  0  0  0
  133.1254  135.6257  162.6399 N   0  0  0  0  0  0  0  0  0  0  0  0
  134.4088  135.2205  163.0297 C   0  0  0  0  0  0  0  0  0  0  0  0
  135.0719  135.8939  164.0468 C   0  0  0  0  0  0  0  0  0  0  0  0
  136.3347  135.4885  164.4328 C   0  0  0  0  0  0  0  0  0  0  0  0
  136.9430  134.4202  163.7993 C   0  0  0  0  0  0  0  0  0  0  0  0
  136.2874  133.7512  162.7821 C   0  0  0  0  0  0  0  0  0  0  0  0
  135.0222  134.1483  162.3956 C   0  0  0  0  0  0  0  0  0  0  0  0
  132.3912  136.6815  163.1954 N   0  0  0  0  0  0  0  0  0  0  0  0
  131.2362  136.7528  162.5676 C   0  0  0  0  0  0  0  0  0  0  0  0
  130.1549  137.7313  162.8410 C   0  0  0  0  0  0  0  0  0  0  0  0
  130.3998  139.0974  162.7159 C   0  0  0  0  0  0  0  0  0  0  0  0
  129.3882  140.0027  162.9655 C   0  0  0  0  0  0  0  0  0  0  0  0
  128.1369  139.5568  163.3505 C   0  0  0  0  0  0  0  0  0  0  0  0
  127.8899  138.2023  163.4822 C   0  0  0  0  0  0  0  0  0  0  0  0
  128.8922  137.2878  163.2293 C   0  0  0  0  0  0  0  0  0  0  0  0
  130.8194  133.7253  157.4478 N   0  0  0  0  0  0  0  0  0  0  0  0
  131.3407  134.3039  156.8696 H   0  0  0  0  0  0  0  0  0  0  0  0
  130.2470  132.2609  154.6642 C   0  0  0  0  0  0  0  0  0  0  0  0
  130.5080  131.5834  153.4905 C   0  0  0  0  0  0  0  0  0  0  0  0
  129.4144  129.2435  151.8418 H   0  0  0  0  0  0  0  0  0  0  0  0
  130.5502  128.1548  151.0094 H   0  0  0  0  0  0  0  0  0  0  0  0
  130.2581  127.9700  152.7555 H   0  0  0  0  0  0  0  0  0  0  0  0
  132.4240  129.0997  152.3301 H   0  0  0  0  0  0  0  0  0  0  0  0
  131.5804  130.3732  151.4164 H   0  0  0  0  0  0  0  0  0  0  0  0
  132.1936  128.9368  154.7375 H   0  0  0  0  0  0  0  0  0  0  0  0
  131.7473  130.1355  156.8390 H   0  0  0  0  0  0  0  0  0  0  0  0
  129.2647  131.0083  158.2837 H   0  0  0  0  0  0  0  0  0  0  0  0
  131.1090  135.9440  158.8535 H   0  0  0  0  0  0  0  0  0  0  0  0
  129.3866  136.3030  160.6297 H   0  0  0  0  0  0  0  0  0  0  0  0
  129.5386  134.5618  160.9663 H   0  0  0  0  0  0  0  0  0  0  0  0
  132.6565  134.2185  161.0461 H   0  0  0  0  0  0  0  0  0  0  0  0
  134.5992  136.7311  164.5389 H   0  0  0  0  0  0  0  0  0  0  0  0
  136.8492  136.0088  165.2271 H   0  0  0  0  0  0  0  0  0  0  0  0
  137.9321  134.1076  164.1000 H   0  0  0  0  0  0  0  0  0  0  0  0
  136.7650  132.9171  162.2896 H   0  0  0  0  0  0  0  0  0  0  0  0
  134.5106  133.6250  161.6014 H   0  0  0  0  0  0  0  0  0  0  0  0
  131.3777  139.4467  162.4196 H   0  0  0  0  0  0  0  0  0  0  0  0
  129.5756  141.0616  162.8642 H   0  0  0  0  0  0  0  0  0  0  0  0
  127.3494  140.2690  163.5488 H   0  0  0  0  0  0  0  0  0  0  0  0
  126.9109  137.8595  163.7832 H   0  0  0  0  0  0  0  0  0  0  0  0
  128.6981  136.2303  163.3317 H   0  0  0  0  0  0  0  0  0  0  0  0
  129.6984  133.1909  154.6415 H   0  0  0  0  0  0  0  0  0  0  0  0
  130.1637  131.9844  152.5487 H   0  0  0  0  0  0  0  0  0  0  0  0
  1  2  1  0
  1 35  1  0
  1 36  1  0
  1 37  1  0
  2  3  1  0
  2 38  1  0
  2 39  1  0
  3 34  2  0
  3  4  1  0
  4  5  2  0
  4 40  1  0
  5  6  1  0
  5 41  1  0
  6  7  1  0
  6 33  2  0
  7 31  1  0
  7  8  2  0
  8  9  1  0
  8 42  1  0
  9 10  1  0
  9 11  1  0
 11 12  1  0
 11 31  2  0
 12 13  1  0
 12 43  1  0
 13 14  1  0
 13 44  1  0
 13 45  1  0
 14 24  1  0
 14 15  2  0
 15 16  1  0
 15 46  1  0
 16 17  1  0
 16 23  1  0
 17 22  1  0
 17 18  2  0
 18 19  1  0
 18 47  1  0
 19 20  2  0
 19 48  1  0
 20 21  1  0
 20 49  1  0
 21 22  2  0
 21 50  1  0
 22 51  1  0
 23 24  2  0
 24 25  1  0
 25 30  1  0
 25 26  2  0
 26 27  1  0
 26 52  1  0
 27 28  2  0
 27 53  1  0
 28 29  1  0
 28 54  1  0
 29 30  2  0
 29 55  1  0
 30 56  1  0
 31 32  1  0
 33 34  1  0
 33 57  1  0
 34 58  1  0
M  CHG  1  31   1
M  END
>  <DOCK_score>  (1) 
-58.636719

>  <SMILES>  (1) 
CCc1ccc(-c2c[nH]c(NCc3cn(-c4ccccc4)nc3-c3ccccc3)[nH+]2)cc1

$$$$
