COC(=O)CCc1c[nH]c(Nc2ccc(O)cc2)[nH+]1
     RDKit          3D

 35 36  0  0  1  0  0  0  0  0999 V2000
  131.0248  129.1754  152.5897 C   0  0  0  0  0  0  0  0  0  0  0  0
  130.7348  129.9674  153.7715 O   0  0  0  0  0  0  0  0  0  0  0  0
  131.1941  131.2287  153.7876 C   0  0  0  0  0  0  0  0  0  0  0  0
  131.8176  131.6566  152.8454 O   0  0  0  0  0  0  0  0  0  0  0  0
  130.9317  132.1109  154.9809 C   0  0  0  0  0  0  0  0  0  0  0  0
  130.1282  131.3320  156.0241 C   0  0  0  0  0  0  0  0  0  0  0  0
  129.8658  132.2141  157.2175 C   0  0  0  0  0  0  0  0  0  0  0  0
  129.1842  131.8625  158.3212 C   0  0  0  0  0  0  0  0  0  0  0  0
  129.1800  132.9568  159.1558 N   0  0  0  0  0  0  0  0  0  0  0  0
  128.7652  133.0135  160.0309 H   0  0  0  0  0  0  0  0  0  0  0  0
  129.8673  133.9444  158.5206 C   0  0  0  0  0  0  0  0  0  0  0  0
  130.0991  135.2178  159.0153 N   0  0  0  0  0  0  0  0  0  0  0  0
  129.1745  135.8104  159.8837 C   0  0  0  0  0  0  0  0  0  0  0  0
  129.6054  136.7148  160.8454 C   0  0  0  0  0  0  0  0  0  0  0  0
  128.6922  137.3017  161.6991 C   0  0  0  0  0  0  0  0  0  0  0  0
  127.3462  136.9811  161.6022 C   0  0  0  0  0  0  0  0  0  0  0  0
  126.4482  137.5559  162.4464 O   0  0  0  0  0  0  0  0  0  0  0  0
  126.9155  136.0741  160.6451 C   0  0  0  0  0  0  0  0  0  0  0  0
  127.8268  135.4895  159.7878 C   0  0  0  0  0  0  0  0  0  0  0  0
  130.2685  133.4882  157.3576 N   0  0  0  0  0  0  0  0  0  0  0  0
  130.7779  133.9909  156.7029 H   0  0  0  0  0  0  0  0  0  0  0  0
  132.1042  129.0958  152.4613 H   0  0  0  0  0  0  0  0  0  0  0  0
  130.5982  128.1791  152.7062 H   0  0  0  0  0  0  0  0  0  0  0  0
  130.5894  129.6567  151.7139 H   0  0  0  0  0  0  0  0  0  0  0  0
  130.3657  132.9879  154.6669 H   0  0  0  0  0  0  0  0  0  0  0  0
  131.8805  132.4270  155.4148 H   0  0  0  0  0  0  0  0  0  0  0  0
  130.6942  130.4549  156.3382 H   0  0  0  0  0  0  0  0  0  0  0  0
  129.1794  131.0159  155.5903 H   0  0  0  0  0  0  0  0  0  0  0  0
  128.7269  130.9037  158.5162 H   0  0  0  0  0  0  0  0  0  0  0  0
  130.9018  135.6987  158.7600 H   0  0  0  0  0  0  0  0  0  0  0  0
  130.6540  136.9615  160.9237 H   0  0  0  0  0  0  0  0  0  0  0  0
  129.0267  138.0078  162.4448 H   0  0  0  0  0  0  0  0  0  0  0  0
  125.5353  137.2710  162.3030 H   0  0  0  0  0  0  0  0  0  0  0  0
  125.8674  135.8248  160.5705 H   0  0  0  0  0  0  0  0  0  0  0  0
  127.4914  134.7828  159.0430 H   0  0  0  0  0  0  0  0  0  0  0  0
  1  2  1  0
  1 22  1  0
  1 23  1  0
  1 24  1  0
  2  3  1  0
  3  4  2  0
  3  5  1  0
  5  6  1  0
  5 25  1  0
  5 26  1  0
  6  7  1  0
  6 27  1  0
  6 28  1  0
  7 20  1  0
  7  8  2  0
  8  9  1  0
  8 29  1  0
  9 10  1  0
  9 11  1  0
 11 12  1  0
 11 20  2  0
 12 13  1  0
 12 30  1  0
 13 19  1  0
 13 14  2  0
 14 15  1  0
 14 31  1  0
 15 16  2  0
 15 32  1  0
 16 17  1  0
 16 18  1  0
 17 33  1  0
 18 19  2  0
 18 34  1  0
 19 35  1  0
 20 21  1  0
M  CHG  1  20   1
M  END
>  <DOCK_score>  (1) 
-43.517872

>  <SMILES>  (1) 
COC(=O)CCc1c[nH]c(Nc2ccc(O)cc2)[nH+]1

$$$$
