CN(C)c1ccccc1CC[NH+]1CCN(c2ccccc2C=C/C=C/c2ccccc2)CC1
     RDKit          3D

 69 72  0  0  1  0  0  0  0  0999 V2000
  131.5949  130.4647  159.4831 C   0  0  0  0  0  0  0  0  0  0  0  0
  130.9531  131.4964  158.6575 N   0  0  0  0  0  0  0  0  0  0  0  0
  130.7950  131.0380  157.2708 C   0  0  0  0  0  0  0  0  0  0  0  0
  129.7251  131.8802  159.2010 C   0  0  0  0  0  0  0  0  0  0  0  0
  128.7144  130.9418  159.3688 C   0  0  0  0  0  0  0  0  0  0  0  0
  127.5016  131.3245  159.9068 C   0  0  0  0  0  0  0  0  0  0  0  0
  127.2924  132.6403  160.2783 C   0  0  0  0  0  0  0  0  0  0  0  0
  128.2961  133.5766  160.1127 C   0  0  0  0  0  0  0  0  0  0  0  0
  129.5136  133.1995  159.5803 C   0  0  0  0  0  0  0  0  0  0  0  0
  130.6091  134.2195  159.4059 C   0  0  0  0  0  0  0  0  0  0  0  0
  130.1198  135.5828  159.8983 C   0  0  0  0  0  0  0  0  0  0  0  0
  131.1878  136.5771  159.7283 N   0  0  0  0  0  0  0  0  0  0  0  0
  131.6585  136.4179  158.8501 H   0  0  0  0  0  0  0  0  0  0  0  0
  132.1517  136.4532  160.8296 C   0  0  0  0  0  0  0  0  0  0  0  0
  133.2746  137.4758  160.6427 C   0  0  0  0  0  0  0  0  0  0  0  0
  132.7016  138.8291  160.6205 N   0  0  0  0  0  0  0  0  0  0  0  0
  133.7012  139.7926  160.5055 C   0  0  0  0  0  0  0  0  0  0  0  0
  134.5440  139.7947  159.4038 C   0  0  0  0  0  0  0  0  0  0  0  0
  135.5309  140.7547  159.2883 C   0  0  0  0  0  0  0  0  0  0  0  0
  135.6957  141.7137  160.2742 C   0  0  0  0  0  0  0  0  0  0  0  0
  134.8720  141.7250  161.3793 C   0  0  0  0  0  0  0  0  0  0  0  0
  133.8645  140.7637  161.5076 C   0  0  0  0  0  0  0  0  0  0  0  0
  132.9818  140.7696  162.6831 C   0  0  0  0  0  0  0  0  0  0  0  0
  131.8319  141.4778  162.6606 C   0  0  0  0  0  0  0  0  0  0  0  0
  130.9819  141.4834  163.7927 C   0  0  0  0  0  0  0  0  0  0  0  0
  129.8325  142.1912  163.7703 C   0  0  0  0  0  0  0  0  0  0  0  0
  128.9490  142.1971  164.9470 C   0  0  0  0  0  0  0  0  0  0  0  0
  129.4501  141.8444  166.2042 C   0  0  0  0  0  0  0  0  0  0  0  0
  128.6172  141.8583  167.3029 C   0  0  0  0  0  0  0  0  0  0  0  0
  127.2856  142.2081  167.1621 C   0  0  0  0  0  0  0  0  0  0  0  0
  126.7807  142.5528  165.9203 C   0  0  0  0  0  0  0  0  0  0  0  0
  127.6021  142.5497  164.8130 C   0  0  0  0  0  0  0  0  0  0  0  0
  131.7159  138.9610  159.5383 C   0  0  0  0  0  0  0  0  0  0  0  0
  130.6061  137.9258  159.7342 C   0  0  0  0  0  0  0  0  0  0  0  0
  130.9481  129.5891  159.5380 H   0  0  0  0  0  0  0  0  0  0  0  0
  132.5491  130.1841  159.0372 H   0  0  0  0  0  0  0  0  0  0  0  0
  131.7636  130.8553  160.4866 H   0  0  0  0  0  0  0  0  0  0  0  0
  130.3821  131.8455  156.6660 H   0  0  0  0  0  0  0  0  0  0  0  0
  131.7662  130.7453  156.8718 H   0  0  0  0  0  0  0  0  0  0  0  0
  130.1192  130.1831  157.2457 H   0  0  0  0  0  0  0  0  0  0  0  0
  128.8770  129.9143  159.0790 H   0  0  0  0  0  0  0  0  0  0  0  0
  126.7155  130.5956  160.0376 H   0  0  0  0  0  0  0  0  0  0  0  0
  126.3427  132.9371  160.6981 H   0  0  0  0  0  0  0  0  0  0  0  0
  128.1294  134.6032  160.4037 H   0  0  0  0  0  0  0  0  0  0  0  0
  131.4828  133.9167  159.9831 H   0  0  0  0  0  0  0  0  0  0  0  0
  130.8766  134.2886  158.3515 H   0  0  0  0  0  0  0  0  0  0  0  0
  129.2462  135.8857  159.3211 H   0  0  0  0  0  0  0  0  0  0  0  0
  129.8523  135.5136  160.9528 H   0  0  0  0  0  0  0  0  0  0  0  0
  131.6460  136.6377  161.7775 H   0  0  0  0  0  0  0  0  0  0  0  0
  132.5728  135.4478  160.8324 H   0  0  0  0  0  0  0  0  0  0  0  0
  133.7890  137.2832  159.7012 H   0  0  0  0  0  0  0  0  0  0  0  0
  133.9825  137.3940  161.4673 H   0  0  0  0  0  0  0  0  0  0  0  0
  134.4256  139.0477  158.6328 H   0  0  0  0  0  0  0  0  0  0  0  0
  136.1812  140.7545  158.4261 H   0  0  0  0  0  0  0  0  0  0  0  0
  136.4734  142.4566  160.1762 H   0  0  0  0  0  0  0  0  0  0  0  0
  135.0042  142.4753  162.1449 H   0  0  0  0  0  0  0  0  0  0  0  0
  133.2528  140.2075  163.5645 H   0  0  0  0  0  0  0  0  0  0  0  0
  131.5611  142.0397  161.7791 H   0  0  0  0  0  0  0  0  0  0  0  0
  131.2528  140.9213  164.6743 H   0  0  0  0  0  0  0  0  0  0  0  0
  129.5616  142.7532  162.8888 H   0  0  0  0  0  0  0  0  0  0  0  0
  130.4879  141.5665  166.3148 H   0  0  0  0  0  0  0  0  0  0  0  0
  129.0040  141.5913  168.2754 H   0  0  0  0  0  0  0  0  0  0  0  0
  126.6371  142.2124  168.0258 H   0  0  0  0  0  0  0  0  0  0  0  0
  125.7406  142.8253  165.8186 H   0  0  0  0  0  0  0  0  0  0  0  0
  127.2068  142.8193  163.8447 H   0  0  0  0  0  0  0  0  0  0  0  0
  132.2048  138.7929  158.5786 H   0  0  0  0  0  0  0  0  0  0  0  0
  131.2866  139.9626  159.5575 H   0  0  0  0  0  0  0  0  0  0  0  0
  129.8814  138.0125  158.9247 H   0  0  0  0  0  0  0  0  0  0  0  0
  130.1086  138.1027  160.6878 H   0  0  0  0  0  0  0  0  0  0  0  0
  1  2  1  0
  1 35  1  0
  1 36  1  0
  1 37  1  0
  2  3  1  0
  2  4  1  0
  3 38  1  0
  3 39  1  0
  3 40  1  0
  4  9  2  0
  4  5  1  0
  5  6  2  0
  5 41  1  0
  6  7  1  0
  6 42  1  0
  7  8  2  0
  7 43  1  0
  8  9  1  0
  8 44  1  0
  9 10  1  0
 10 11  1  0
 10 45  1  0
 10 46  1  0
 11 12  1  0
 11 47  1  0
 11 48  1  0
 12 13  1  0
 12 34  1  0
 12 14  1  0
 14 15  1  0
 14 49  1  0
 14 50  1  0
 15 16  1  0
 15 51  1  0
 15 52  1  0
 16 17  1  0
 16 33  1  0
 17 22  1  0
 17 18  2  0
 18 19  1  0
 18 53  1  0
 19 20  2  0
 19 54  1  0
 20 21  1  0
 20 55  1  0
 21 22  2  0
 21 56  1  0
 22 23  1  0
 23 24  2  0
 23 57  1  0
 24 25  1  0
 24 58  1  0
 25 26  2  0
 25 59  1  0
 26 27  1  0
 26 60  1  0
 27 32  1  0
 27 28  2  0
 28 29  1  0
 28 61  1  0
 29 30  2  0
 29 62  1  0
 30 31  1  0
 30 63  1  0
 31 32  2  0
 31 64  1  0
 32 65  1  0
 33 34  1  0
 33 66  1  0
 33 67  1  0
 34 68  1  0
 34 69  1  0
M  CHG  1  12   1
M  END
>  <DOCK_score>  (1) 
-56.737114

>  <SMILES>  (1) 
CN(C)c1ccccc1CC[NH+]1CCN(c2ccccc2C=C/C=C/c2ccccc2)CC1

$$$$
