CCc1ccc(-c2c[nH]c(N[C@H](c3ccccc3)c3nc(C4=CCCCO4)no3)[nH+]2)cc1
     RDKit          3D

 58 62  0  0  1  0  0  0  0  0999 V2000
  130.1481  128.3091  151.6612 C   0  0  0  0  0  0  0  0  0  0  0  0
  131.2558  129.3384  151.8939 C   0  0  0  0  0  0  0  0  0  0  0  0
  130.9238  130.1682  153.1074 C   0  0  0  0  0  0  0  0  0  0  0  0
  131.3553  129.7637  154.3573 C   0  0  0  0  0  0  0  0  0  0  0  0
  131.0591  130.5224  155.4715 C   0  0  0  0  0  0  0  0  0  0  0  0
  130.3139  131.6924  155.3365 C   0  0  0  0  0  0  0  0  0  0  0  0
  129.9876  132.5092  156.5310 C   0  0  0  0  0  0  0  0  0  0  0  0
  129.2855  132.0940  157.6143 C   0  0  0  0  0  0  0  0  0  0  0  0
  129.2170  133.1603  158.4776 N   0  0  0  0  0  0  0  0  0  0  0  0
  128.7771  133.1722  159.3420 H   0  0  0  0  0  0  0  0  0  0  0  0
  129.8800  134.1969  157.8962 C   0  0  0  0  0  0  0  0  0  0  0  0
  130.0425  135.4582  158.4429 N   0  0  0  0  0  0  0  0  0  0  0  0
  129.4749  135.7652  159.7581 C   0  0  2  0  0  0  0  0  0  0  0  0
  129.9051  135.0974  160.5043 H   0  0  0  0  0  0  0  0  0  0  0  0
  127.9803  135.5762  159.7167 C   0  0  0  0  0  0  0  0  0  0  0  0
  127.3008  135.1884  160.8565 C   0  0  0  0  0  0  0  0  0  0  0  0
  125.9293  135.0193  160.8197 C   0  0  0  0  0  0  0  0  0  0  0  0
  125.2385  135.2290  159.6408 C   0  0  0  0  0  0  0  0  0  0  0  0
  125.9187  135.6116  158.4998 C   0  0  0  0  0  0  0  0  0  0  0  0
  127.2896  135.7850  158.5377 C   0  0  0  0  0  0  0  0  0  0  0  0
  129.7905  137.1935  160.1205 C   0  0  0  0  0  0  0  0  0  0  0  0
  129.9581  137.6703  161.3286 N   0  0  0  0  0  0  0  0  0  0  0  0
  130.2240  138.9869  161.1660 C   0  0  0  0  0  0  0  0  0  0  0  0
  130.4929  139.9693  162.2413 C   0  0  0  0  0  0  0  0  0  0  0  0
  130.7299  141.2240  161.9027 C   0  0  0  0  0  0  0  0  0  0  0  0
  131.0207  142.2912  162.9225 C   0  0  0  0  0  0  0  0  0  0  0  0
  130.5709  141.8110  164.3064 C   0  0  0  0  0  0  0  0  0  0  0  0
  131.0895  140.3809  164.5103 C   0  0  0  0  0  0  0  0  0  0  0  0
  130.4788  139.5400  163.5255 O   0  0  0  0  0  0  0  0  0  0  0  0
  130.1935  139.2307  159.8806 N   0  0  0  0  0  0  0  0  0  0  0  0
  129.9463  138.2126  159.2695 O   0  0  0  0  0  0  0  0  0  0  0  0
  130.3440  133.8022  156.7356 N   0  0  0  0  0  0  0  0  0  0  0  0
  130.8580  134.3482  156.1203 H   0  0  0  0  0  0  0  0  0  0  0  0
  129.8768  132.0925  154.0750 C   0  0  0  0  0  0  0  0  0  0  0  0
  130.1837  131.3289  152.9671 C   0  0  0  0  0  0  0  0  0  0  0  0
  130.3882  127.7091  150.7835 H   0  0  0  0  0  0  0  0  0  0  0  0
  130.0665  127.6605  152.5334 H   0  0  0  0  0  0  0  0  0  0  0  0
  129.2008  128.8240  151.5014 H   0  0  0  0  0  0  0  0  0  0  0  0
  132.2029  128.8241  152.0532 H   0  0  0  0  0  0  0  0  0  0  0  0
  131.3372  129.9876  151.0212 H   0  0  0  0  0  0  0  0  0  0  0  0
  131.9286  128.8544  154.4614 H   0  0  0  0  0  0  0  0  0  0  0  0
  131.4005  130.2080  156.4467 H   0  0  0  0  0  0  0  0  0  0  0  0
  128.8611  131.1129  157.7685 H   0  0  0  0  0  0  0  0  0  0  0  0
  130.5324  136.1388  157.9552 H   0  0  0  0  0  0  0  0  0  0  0  0
  127.8410  135.0210  161.7766 H   0  0  0  0  0  0  0  0  0  0  0  0
  125.3980  134.7207  161.7112 H   0  0  0  0  0  0  0  0  0  0  0  0
  124.1674  135.0942  159.6115 H   0  0  0  0  0  0  0  0  0  0  0  0
  125.3790  135.7754  157.5788 H   0  0  0  0  0  0  0  0  0  0  0  0
  127.8209  136.0839  157.6462 H   0  0  0  0  0  0  0  0  0  0  0  0
  130.7140  141.4932  160.8570 H   0  0  0  0  0  0  0  0  0  0  0  0
  132.0912  142.4959  162.9392 H   0  0  0  0  0  0  0  0  0  0  0  0
  130.4809  143.2012  162.6604 H   0  0  0  0  0  0  0  0  0  0  0  0
  130.9836  142.4647  165.0746 H   0  0  0  0  0  0  0  0  0  0  0  0
  129.4823  141.8195  164.3626 H   0  0  0  0  0  0  0  0  0  0  0  0
  132.1730  140.3629  164.3933 H   0  0  0  0  0  0  0  0  0  0  0  0
  130.8218  140.0317  165.5074 H   0  0  0  0  0  0  0  0  0  0  0  0
  129.2988  132.9982  153.9646 H   0  0  0  0  0  0  0  0  0  0  0  0
  129.8453  131.6377  151.9890 H   0  0  0  0  0  0  0  0  0  0  0  0
  1  2  1  0
  1 36  1  0
  1 37  1  0
  1 38  1  0
  2  3  1  0
  2 39  1  0
  2 40  1  0
  3 35  2  0
  3  4  1  0
  4  5  2  0
  4 41  1  0
  5  6  1  0
  5 42  1  0
  6  7  1  0
  6 34  2  0
  7 32  1  0
  7  8  2  0
  8  9  1  0
  8 43  1  0
  9 10  1  0
  9 11  1  0
 11 12  1  0
 11 32  2  0
 12 13  1  0
 12 44  1  0
 13 14  1  1
 13 15  1  0
 13 21  1  0
 15 20  1  0
 15 16  2  0
 16 17  1  0
 16 45  1  0
 17 18  2  0
 17 46  1  0
 18 19  1  0
 18 47  1  0
 19 20  2  0
 19 48  1  0
 20 49  1  0
 21 31  1  0
 21 22  2  0
 22 23  1  0
 23 24  1  0
 23 30  2  0
 24 29  1  0
 24 25  2  0
 25 26  1  0
 25 50  1  0
 26 27  1  0
 26 51  1  0
 26 52  1  0
 27 28  1  0
 27 53  1  0
 27 54  1  0
 28 29  1  0
 28 55  1  0
 28 56  1  0
 30 31  1  0
 32 33  1  0
 34 35  1  0
 34 57  1  0
 35 58  1  0
M  CHG  1  32   1
M  END
>  <DOCK_score>  (1) 
-61.014702

>  <SMILES>  (1) 
CCc1ccc(-c2c[nH]c(N[C@H](c3ccccc3)c3nc(C4=CCCCO4)no3)[nH+]2)cc1

$$$$
