c1cncc(-c2ccc([C@H](Nc3[nH]cc(-c4cccnc4)[nH+]3)c3cccnc3)cc2)c1
     RDKit          3D

 52 56  0  0  1  0  0  0  0  0999 V2000
  137.0365  136.7097  165.9497 C   0  0  0  0  0  0  0  0  0  0  0  0
  138.1595  136.2526  165.2841 C   0  0  0  0  0  0  0  0  0  0  0  0
  138.0902  135.8524  164.0294 N   0  0  0  0  0  0  0  0  0  0  0  0
  136.9567  135.8625  163.3579 C   0  0  0  0  0  0  0  0  0  0  0  0
  135.7825  136.3143  163.9558 C   0  0  0  0  0  0  0  0  0  0  0  0
  134.5079  136.3318  163.1961 C   0  0  0  0  0  0  0  0  0  0  0  0
  133.2950  136.1653  163.8615 C   0  0  0  0  0  0  0  0  0  0  0  0
  132.1125  136.1818  163.1499 C   0  0  0  0  0  0  0  0  0  0  0  0
  132.1299  136.3634  161.7788 C   0  0  0  0  0  0  0  0  0  0  0  0
  130.8355  136.3811  161.0074 C   0  0  2  0  0  0  0  0  0  0  0  0
  130.1043  135.7482  161.5101 H   0  0  0  0  0  0  0  0  0  0  0  0
  131.0681  135.8766  159.6517 N   0  0  0  0  0  0  0  0  0  0  0  0
  130.9400  134.5242  159.3850 C   0  0  0  0  0  0  0  0  0  0  0  0
  130.6106  133.5650  160.2926 N   0  0  0  0  0  0  0  0  0  0  0  0
  130.4247  133.7046  161.2343 H   0  0  0  0  0  0  0  0  0  0  0  0
  130.5873  132.3628  159.6281 C   0  0  0  0  0  0  0  0  0  0  0  0
  130.9106  132.6206  158.3366 C   0  0  0  0  0  0  0  0  0  0  0  0
  131.0150  131.6202  157.2464 C   0  0  0  0  0  0  0  0  0  0  0  0
  130.7314  131.9773  155.9250 C   0  0  0  0  0  0  0  0  0  0  0  0
  130.8482  131.0084  154.9436 C   0  0  0  0  0  0  0  0  0  0  0  0
  131.2282  129.7269  155.2998 C   0  0  0  0  0  0  0  0  0  0  0  0
  131.4847  129.4182  156.5562 N   0  0  0  0  0  0  0  0  0  0  0  0
  131.3920  130.3077  157.5235 C   0  0  0  0  0  0  0  0  0  0  0  0
  131.1215  133.9557  158.2181 N   0  0  0  0  0  0  0  0  0  0  0  0
  131.3675  134.4158  157.4004 H   0  0  0  0  0  0  0  0  0  0  0  0
  130.3130  137.7927  160.9351 C   0  0  0  0  0  0  0  0  0  0  0  0
  131.0670  138.7908  160.3365 C   0  0  0  0  0  0  0  0  0  0  0  0
  130.5466  140.0749  160.2933 C   0  0  0  0  0  0  0  0  0  0  0  0
  129.3020  140.3161  160.8443 C   0  0  0  0  0  0  0  0  0  0  0  0
  128.6127  139.3422  161.4056 N   0  0  0  0  0  0  0  0  0  0  0  0
  129.0764  138.1091  161.4646 C   0  0  0  0  0  0  0  0  0  0  0  0
  133.3315  136.5236  161.1125 C   0  0  0  0  0  0  0  0  0  0  0  0
  134.5196  136.5139  161.8148 C   0  0  0  0  0  0  0  0  0  0  0  0
  135.8231  136.7455  165.2846 C   0  0  0  0  0  0  0  0  0  0  0  0
  137.1055  137.0348  166.9773 H   0  0  0  0  0  0  0  0  0  0  0  0
  139.1078  136.2232  165.7999 H   0  0  0  0  0  0  0  0  0  0  0  0
  136.9387  135.5222  162.3331 H   0  0  0  0  0  0  0  0  0  0  0  0
  133.2803  136.0239  164.9321 H   0  0  0  0  0  0  0  0  0  0  0  0
  131.1718  136.0529  163.6646 H   0  0  0  0  0  0  0  0  0  0  0  0
  131.3118  136.4901  158.9410 H   0  0  0  0  0  0  0  0  0  0  0  0
  130.3590  131.3968  160.0537 H   0  0  0  0  0  0  0  0  0  0  0  0
  130.4324  132.9848  155.6756 H   0  0  0  0  0  0  0  0  0  0  0  0
  130.6405  131.2490  153.9114 H   0  0  0  0  0  0  0  0  0  0  0  0
  131.3167  128.9674  154.5372 H   0  0  0  0  0  0  0  0  0  0  0  0
  131.6104  130.0170  158.5406 H   0  0  0  0  0  0  0  0  0  0  0  0
  132.0367  138.5728  159.9139 H   0  0  0  0  0  0  0  0  0  0  0  0
  131.1064  140.8767  159.8353 H   0  0  0  0  0  0  0  0  0  0  0  0
  128.8893  141.3136  160.8143 H   0  0  0  0  0  0  0  0  0  0  0  0
  128.4850  137.3383  161.9364 H   0  0  0  0  0  0  0  0  0  0  0  0
  133.3396  136.6607  160.0413 H   0  0  0  0  0  0  0  0  0  0  0  0
  135.4570  136.6434  161.2942 H   0  0  0  0  0  0  0  0  0  0  0  0
  134.9305  137.0980  165.7799 H   0  0  0  0  0  0  0  0  0  0  0  0
  1 34  2  0
  1  2  1  0
  1 35  1  0
  2  3  2  0
  2 36  1  0
  3  4  1  0
  4  5  2  0
  4 37  1  0
  5  6  1  0
  5 34  1  0
  6 33  1  0
  6  7  2  0
  7  8  1  0
  7 38  1  0
  8  9  2  0
  8 39  1  0
  9 10  1  0
  9 32  1  0
 10 11  1  1
 10 12  1  0
 10 26  1  0
 12 40  1  0
 13 12  1  0
 13 24  2  0
 13 14  1  0
 14 15  1  0
 14 16  1  0
 16 17  2  0
 16 41  1  0
 17 18  1  0
 17 24  1  0
 18 23  1  0
 18 19  2  0
 19 20  1  0
 19 42  1  0
 20 21  2  0
 20 43  1  0
 21 22  1  0
 21 44  1  0
 22 23  2  0
 23 45  1  0
 24 25  1  0
 26 31  1  0
 26 27  2  0
 27 28  1  0
 27 46  1  0
 28 29  2  0
 28 47  1  0
 29 30  1  0
 29 48  1  0
 30 31  2  0
 31 49  1  0
 32 33  2  0
 32 50  1  0
 33 51  1  0
 34 52  1  0
M  CHG  1  24   1
M  END
>  <DOCK_score>  (1) 
-58.698574

>  <SMILES>  (1) 
c1cncc(-c2ccc([C@H](Nc3[nH]cc(-c4cccnc4)[nH+]3)c3cccnc3)cc2)c1

$$$$
