C[C@H](Cc1ccc(-c2ccccc2)cc1)Nc1[nH]cc(-c2ccc(N)cc2)[nH+]1
     RDKit          3D

 53 56  0  0  1  0  0  0  0  0999 V2000
  128.6001  136.8539  160.4283 C   0  0  0  0  0  0  0  0  0  0  0  0
  129.1186  135.4207  160.2962 C   0  0  2  0  0  0  0  0  0  0  0  0
  128.2946  134.7216  160.4390 H   0  0  0  0  0  0  0  0  0  0  0  0
  130.1921  135.1668  161.3564 C   0  0  0  0  0  0  0  0  0  0  0  0
  131.3314  136.1333  161.1592 C   0  0  0  0  0  0  0  0  0  0  0  0
  131.3145  137.3585  161.8010 C   0  0  0  0  0  0  0  0  0  0  0  0
  132.3556  138.2473  161.6243 C   0  0  0  0  0  0  0  0  0  0  0  0
  133.4249  137.9084  160.7977 C   0  0  0  0  0  0  0  0  0  0  0  0
  134.5466  138.8601  160.6034 C   0  0  0  0  0  0  0  0  0  0  0  0
  135.2566  138.8689  159.4046 C   0  0  0  0  0  0  0  0  0  0  0  0
  136.2995  139.7557  159.2294 C   0  0  0  0  0  0  0  0  0  0  0  0
  136.6403  140.6350  160.2415 C   0  0  0  0  0  0  0  0  0  0  0  0
  135.9423  140.6271  161.4357 C   0  0  0  0  0  0  0  0  0  0  0  0
  134.8943  139.7479  161.6195 C   0  0  0  0  0  0  0  0  0  0  0  0
  133.4340  136.6749  160.1495 C   0  0  0  0  0  0  0  0  0  0  0  0
  132.3904  135.7917  160.3375 C   0  0  0  0  0  0  0  0  0  0  0  0
  129.6947  135.2306  158.9628 N   0  0  0  0  0  0  0  0  0  0  0  0
  129.6607  133.9820  158.3655 C   0  0  0  0  0  0  0  0  0  0  0  0
  129.1181  132.8584  158.9083 N   0  0  0  0  0  0  0  0  0  0  0  0
  128.6898  132.7883  159.7757 H   0  0  0  0  0  0  0  0  0  0  0  0
  129.2896  131.8405  158.0001 C   0  0  0  0  0  0  0  0  0  0  0  0
  129.9314  132.3721  156.9304 C   0  0  0  0  0  0  0  0  0  0  0  0
  130.3281  131.6442  155.7002 C   0  0  0  0  0  0  0  0  0  0  0  0
  129.8256  132.0407  154.4619 C   0  0  0  0  0  0  0  0  0  0  0  0
  130.2002  131.3663  153.3189 C   0  0  0  0  0  0  0  0  0  0  0  0
  131.0694  130.2845  153.4024 C   0  0  0  0  0  0  0  0  0  0  0  0
  131.4432  129.5997  152.2437 N   0  0  0  0  0  0  0  0  0  0  0  0
  131.5670  129.8840  154.6365 C   0  0  0  0  0  0  0  0  0  0  0  0
  131.1995  130.5591  155.7814 C   0  0  0  0  0  0  0  0  0  0  0  0
  130.1410  133.6886  157.1817 N   0  0  0  0  0  0  0  0  0  0  0  0
  130.5783  134.3130  156.5818 H   0  0  0  0  0  0  0  0  0  0  0  0
  129.4242  137.5530  160.2856 H   0  0  0  0  0  0  0  0  0  0  0  0
  127.8354  137.0347  159.6729 H   0  0  0  0  0  0  0  0  0  0  0  0
  128.1715  136.9953  161.4205 H   0  0  0  0  0  0  0  0  0  0  0  0
  130.5615  134.1456  161.2623 H   0  0  0  0  0  0  0  0  0  0  0  0
  129.7634  135.3079  162.3486 H   0  0  0  0  0  0  0  0  0  0  0  0
  130.4851  137.6203  162.4412 H   0  0  0  0  0  0  0  0  0  0  0  0
  132.3416  139.2035  162.1262 H   0  0  0  0  0  0  0  0  0  0  0  0
  134.9915  138.1824  158.6139 H   0  0  0  0  0  0  0  0  0  0  0  0
  136.8502  139.7636  158.3004 H   0  0  0  0  0  0  0  0  0  0  0  0
  137.4573  141.3271  160.1003 H   0  0  0  0  0  0  0  0  0  0  0  0
  136.2152  141.3129  162.2240 H   0  0  0  0  0  0  0  0  0  0  0  0
  134.3475  139.7452  162.5509 H   0  0  0  0  0  0  0  0  0  0  0  0
  134.2584  136.4090  159.5045 H   0  0  0  0  0  0  0  0  0  0  0  0
  132.3985  134.8337  159.8389 H   0  0  0  0  0  0  0  0  0  0  0  0
  130.0999  135.9794  158.4983 H   0  0  0  0  0  0  0  0  0  0  0  0
  128.9738  130.8144  158.1163 H   0  0  0  0  0  0  0  0  0  0  0  0
  129.1466  132.8780  154.3971 H   0  0  0  0  0  0  0  0  0  0  0  0
  129.8144  131.6757  152.3588 H   0  0  0  0  0  0  0  0  0  0  0  0
  132.0498  128.8449  152.3011 H   0  0  0  0  0  0  0  0  0  0  0  0
  131.0963  129.8786  151.3820 H   0  0  0  0  0  0  0  0  0  0  0  0
  132.2418  129.0432  154.6990 H   0  0  0  0  0  0  0  0  0  0  0  0
  131.5868  130.2477  156.7403 H   0  0  0  0  0  0  0  0  0  0  0  0
  1  2  1  0
  1 32  1  0
  1 33  1  0
  1 34  1  0
  2  3  1  1
  2  4  1  0
  2 17  1  0
  4  5  1  0
  4 35  1  0
  4 36  1  0
  5 16  1  0
  5  6  2  0
  6  7  1  0
  6 37  1  0
  7  8  2  0
  7 38  1  0
  8  9  1  0
  8 15  1  0
  9 14  1  0
  9 10  2  0
 10 11  1  0
 10 39  1  0
 11 12  2  0
 11 40  1  0
 12 13  1  0
 12 41  1  0
 13 14  2  0
 13 42  1  0
 14 43  1  0
 15 16  2  0
 15 44  1  0
 16 45  1  0
 17 46  1  0
 18 17  1  0
 18 30  2  0
 18 19  1  0
 19 20  1  0
 19 21  1  0
 21 22  2  0
 21 47  1  0
 22 23  1  0
 22 30  1  0
 23 29  1  0
 23 24  2  0
 24 25  1  0
 24 48  1  0
 25 26  2  0
 25 49  1  0
 26 27  1  0
 26 28  1  0
 27 50  1  0
 27 51  1  0
 28 29  2  0
 28 52  1  0
 29 53  1  0
 30 31  1  0
M  CHG  1  30   1
M  END
>  <DOCK_score>  (1) 
-57.599068

>  <SMILES>  (1) 
C[C@H](Cc1ccc(-c2ccccc2)cc1)Nc1[nH]cc(-c2ccc(N)cc2)[nH+]1

$$$$
