OCC[NH2+]Cc1c[nH]nc1-c1ccc(SC(Cc2ccccc2)Cc2ccccc2)cc1
     RDKit          3D

 62 65  0  0  0  0  0  0  0  0999 V2000
  130.8080  131.8848  158.8309 O   0  0  0  0  0  0  0  0  0  0  0  0
  131.2130  132.9807  158.0081 C   0  0  0  0  0  0  0  0  0  0  0  0
  129.9851  133.8042  157.6147 C   0  0  0  0  0  0  0  0  0  0  0  0
  129.3307  134.3169  158.8259 N   0  0  0  0  0  0  0  0  0  0  0  0
  129.9771  134.8997  159.3363 H   0  0  0  0  0  0  0  0  0  0  0  0
  129.0449  133.5430  159.4069 H   0  0  0  0  0  0  0  0  0  0  0  0
  128.1516  135.1075  158.4484 C   0  0  0  0  0  0  0  0  0  0  0  0
  127.4804  135.6334  159.6910 C   0  0  0  0  0  0  0  0  0  0  0  0
  126.1542  135.6154  159.9470 C   0  0  0  0  0  0  0  0  0  0  0  0
  125.9556  136.1802  161.1573 N   0  0  0  0  0  0  0  0  0  0  0  0
  125.0984  136.3027  161.5945 H   0  0  0  0  0  0  0  0  0  0  0  0
  127.2028  136.5529  161.6746 N   0  0  0  0  0  0  0  0  0  0  0  0
  128.1251  136.2254  160.7945 C   0  0  0  0  0  0  0  0  0  0  0  0
  129.5860  136.4414  160.9396 C   0  0  0  0  0  0  0  0  0  0  0  0
  130.2755  135.8583  162.0016 C   0  0  0  0  0  0  0  0  0  0  0  0
  131.6338  136.0550  162.1313 C   0  0  0  0  0  0  0  0  0  0  0  0
  132.3140  136.8446  161.2104 C   0  0  0  0  0  0  0  0  0  0  0  0
  134.0487  137.1010  161.3827 S   0  0  0  0  0  0  0  0  0  0  0  0
  134.1847  137.8914  163.0097 C   0  0  0  0  0  0  0  0  0  0  0  0
  135.6136  137.7363  163.5342 C   0  0  0  0  0  0  0  0  0  0  0  0
  135.7881  136.3574  164.1167 C   0  0  0  0  0  0  0  0  0  0  0  0
  135.5250  136.1343  165.4554 C   0  0  0  0  0  0  0  0  0  0  0  0
  135.6803  134.8685  165.9887 C   0  0  0  0  0  0  0  0  0  0  0  0
  136.1089  133.8281  165.1858 C   0  0  0  0  0  0  0  0  0  0  0  0
  136.3771  134.0523  163.8483 C   0  0  0  0  0  0  0  0  0  0  0  0
  136.2167  135.3170  163.3138 C   0  0  0  0  0  0  0  0  0  0  0  0
  133.8460  139.3781  162.8844 C   0  0  0  0  0  0  0  0  0  0  0  0
  134.8068  140.0332  161.9259 C   0  0  0  0  0  0  0  0  0  0  0  0
  135.9845  140.5836  162.3960 C   0  0  0  0  0  0  0  0  0  0  0  0
  136.8681  141.1803  161.5161 C   0  0  0  0  0  0  0  0  0  0  0  0
  136.5691  141.2357  160.1676 C   0  0  0  0  0  0  0  0  0  0  0  0
  135.3890  140.6900  159.6982 C   0  0  0  0  0  0  0  0  0  0  0  0
  134.5079  140.0886  160.5773 C   0  0  0  0  0  0  0  0  0  0  0  0
  131.6267  137.4317  160.1536 C   0  0  0  0  0  0  0  0  0  0  0  0
  130.2695  137.2322  160.0174 C   0  0  0  0  0  0  0  0  0  0  0  0
  130.3679  132.1496  159.6502 H   0  0  0  0  0  0  0  0  0  0  0  0
  131.6984  132.6003  157.1094 H   0  0  0  0  0  0  0  0  0  0  0  0
  131.9113  133.6103  158.5594 H   0  0  0  0  0  0  0  0  0  0  0  0
  129.2867  133.1746  157.0634 H   0  0  0  0  0  0  0  0  0  0  0  0
  130.2939  134.6402  156.9872 H   0  0  0  0  0  0  0  0  0  0  0  0
  127.4533  134.4778  157.8970 H   0  0  0  0  0  0  0  0  0  0  0  0
  128.4605  135.9434  157.8207 H   0  0  0  0  0  0  0  0  0  0  0  0
  125.3872  135.2215  159.2964 H   0  0  0  0  0  0  0  0  0  0  0  0
  129.7469  135.2493  162.7198 H   0  0  0  0  0  0  0  0  0  0  0  0
  132.1691  135.5994  162.9512 H   0  0  0  0  0  0  0  0  0  0  0  0
  133.4898  137.4175  163.7030 H   0  0  0  0  0  0  0  0  0  0  0  0
  136.3187  137.8764  162.7147 H   0  0  0  0  0  0  0  0  0  0  0  0
  135.8006  138.4830  164.3058 H   0  0  0  0  0  0  0  0  0  0  0  0
  135.1944  136.9482  166.0837 H   0  0  0  0  0  0  0  0  0  0  0  0
  135.4711  134.6934  167.0336 H   0  0  0  0  0  0  0  0  0  0  0  0
  136.2346  132.8400  165.6034 H   0  0  0  0  0  0  0  0  0  0  0  0
  136.7122  133.2394  163.2211 H   0  0  0  0  0  0  0  0  0  0  0  0
  136.4265  135.4922  162.2691 H   0  0  0  0  0  0  0  0  0  0  0  0
  132.8280  139.4886  162.5107 H   0  0  0  0  0  0  0  0  0  0  0  0
  133.9276  139.8531  163.8621 H   0  0  0  0  0  0  0  0  0  0  0  0
  136.2159  140.5443  163.4501 H   0  0  0  0  0  0  0  0  0  0  0  0
  137.7899  141.6070  161.8828 H   0  0  0  0  0  0  0  0  0  0  0  0
  137.2575  141.7058  159.4807 H   0  0  0  0  0  0  0  0  0  0  0  0
  135.1554  140.7336  158.6447 H   0  0  0  0  0  0  0  0  0  0  0  0
  133.5857  139.6625  160.2107 H   0  0  0  0  0  0  0  0  0  0  0  0
  132.1564  138.0446  159.4395 H   0  0  0  0  0  0  0  0  0  0  0  0
  129.7362  137.6880  159.1962 H   0  0  0  0  0  0  0  0  0  0  0  0
  1  2  1  0
  1 36  1  0
  2  3  1  0
  2 37  1  0
  2 38  1  0
  3  4  1  0
  3 39  1  0
  3 40  1  0
  4  5  1  0
  4  6  1  0
  4  7  1  0
  7  8  1  0
  7 41  1  0
  7 42  1  0
  8 13  1  0
  8  9  2  0
  9 10  1  0
  9 43  1  0
 10 11  1  0
 10 12  1  0
 12 13  2  0
 13 14  1  0
 14 35  1  0
 14 15  2  0
 15 16  1  0
 15 44  1  0
 16 17  2  0
 16 45  1  0
 17 18  1  0
 17 34  1  0
 18 19  1  0
 19 20  1  0
 19 27  1  0
 19 46  1  0
 20 21  1  0
 20 47  1  0
 20 48  1  0
 21 26  1  0
 21 22  2  0
 22 23  1  0
 22 49  1  0
 23 24  2  0
 23 50  1  0
 24 25  1  0
 24 51  1  0
 25 26  2  0
 25 52  1  0
 26 53  1  0
 27 28  1  0
 27 54  1  0
 27 55  1  0
 28 33  1  0
 28 29  2  0
 29 30  1  0
 29 56  1  0
 30 31  2  0
 30 57  1  0
 31 32  1  0
 31 58  1  0
 32 33  2  0
 32 59  1  0
 33 60  1  0
 34 35  2  0
 34 61  1  0
 35 62  1  0
M  CHG  1   4   1
M  END
>  <DOCK_score>  (1) 
-45.129307

>  <SMILES>  (1) 
OCC[NH2+]Cc1c[nH]nc1-c1ccc(SC(Cc2ccccc2)Cc2ccccc2)cc1

$$$$
