O=C1CC[C@H](NC(NC2CCCCC2)=[NH+]CCCc2cccc3ccccc23)CN1
     RDKit          3D

 65 68  0  0  1  0  0  0  0  0999 V2000
  123.8406  134.1257  161.7558 O   0  0  0  0  0  0  0  0  0  0  0  0
  125.0257  134.3184  161.5852 C   0  0  0  0  0  0  0  0  0  0  0  0
  125.8613  133.1867  161.0596 C   0  0  0  0  0  0  0  0  0  0  0  0
  127.3428  133.4666  161.3237 C   0  0  0  0  0  0  0  0  0  0  0  0
  127.6580  134.8919  160.8540 C   0  0  2  0  0  0  0  0  0  0  0  0
  127.3223  135.0205  159.8251 H   0  0  0  0  0  0  0  0  0  0  0  0
  129.1018  135.1275  160.9332 N   0  0  0  0  0  0  0  0  0  0  0  0
  129.9048  134.8426  159.8543 C   0  0  0  0  0  0  0  0  0  0  0  0
  129.3531  134.3365  158.7012 N   0  0  0  0  0  0  0  0  0  0  0  0
  130.1392  133.4479  157.8418 C   0  0  0  0  0  0  0  0  0  0  0  0
  129.2974  133.0306  156.6341 C   0  0  0  0  0  0  0  0  0  0  0  0
  130.1182  132.1026  155.7366 C   0  0  0  0  0  0  0  0  0  0  0  0
  130.5272  130.8584  156.5276 C   0  0  0  0  0  0  0  0  0  0  0  0
  131.3688  131.2757  157.7352 C   0  0  0  0  0  0  0  0  0  0  0  0
  130.5481  132.2037  158.6328 C   0  0  0  0  0  0  0  0  0  0  0  0
  131.1894  135.0521  159.9247 N   0  0  0  0  0  0  0  0  0  0  0  0
  131.7561  134.8511  159.1634 H   0  0  0  0  0  0  0  0  0  0  0  0
  131.7774  135.5913  161.1533 C   0  0  0  0  0  0  0  0  0  0  0  0
  133.2894  135.7403  160.9726 C   0  0  0  0  0  0  0  0  0  0  0  0
  133.9034  136.3034  162.2558 C   0  0  0  0  0  0  0  0  0  0  0  0
  133.2978  137.6509  162.5532 C   0  0  0  0  0  0  0  0  0  0  0  0
  132.1741  137.7427  163.3161 C   0  0  0  0  0  0  0  0  0  0  0  0
  131.6037  138.9802  163.6073 C   0  0  0  0  0  0  0  0  0  0  0  0
  132.1465  140.1324  163.1267 C   0  0  0  0  0  0  0  0  0  0  0  0
  133.3027  140.0771  162.3304 C   0  0  0  0  0  0  0  0  0  0  0  0
  133.8915  141.2452  161.8165 C   0  0  0  0  0  0  0  0  0  0  0  0
  135.0111  141.1530  161.0484 C   0  0  0  0  0  0  0  0  0  0  0  0
  135.5852  139.9155  160.7621 C   0  0  0  0  0  0  0  0  0  0  0  0
  135.0430  138.7635  161.2427 C   0  0  0  0  0  0  0  0  0  0  0  0
  133.8867  138.8186  162.0397 C   0  0  0  0  0  0  0  0  0  0  0  0
  126.9260  135.8827  161.7601 C   0  0  0  0  0  0  0  0  0  0  0  0
  125.5174  135.5237  161.8748 N   0  0  0  0  0  0  0  0  0  0  0  0
  125.6979  133.0838  159.9868 H   0  0  0  0  0  0  0  0  0  0  0  0
  125.5731  132.2615  161.5587 H   0  0  0  0  0  0  0  0  0  0  0  0
  127.9551  132.7542  160.7709 H   0  0  0  0  0  0  0  0  0  0  0  0
  127.5485  133.3777  162.3905 H   0  0  0  0  0  0  0  0  0  0  0  0
  129.4910  135.4846  161.7467 H   0  0  0  0  0  0  0  0  0  0  0  0
  128.4433  134.5677  158.4568 H   0  0  0  0  0  0  0  0  0  0  0  0
  131.0323  133.9703  157.4990 H   0  0  0  0  0  0  0  0  0  0  0  0
  128.4043  132.5082  156.9768 H   0  0  0  0  0  0  0  0  0  0  0  0
  129.0061  133.9170  156.0707 H   0  0  0  0  0  0  0  0  0  0  0  0
  131.0114  132.6250  155.3938 H   0  0  0  0  0  0  0  0  0  0  0  0
  129.5186  131.8053  154.8762 H   0  0  0  0  0  0  0  0  0  0  0  0
  131.1120  130.1972  155.8881 H   0  0  0  0  0  0  0  0  0  0  0  0
  129.6340  130.3360  156.8704 H   0  0  0  0  0  0  0  0  0  0  0  0
  132.2620  131.7981  157.3925 H   0  0  0  0  0  0  0  0  0  0  0  0
  131.6602  130.3893  158.2987 H   0  0  0  0  0  0  0  0  0  0  0  0
  131.1476  132.5010  159.4932 H   0  0  0  0  0  0  0  0  0  0  0  0
  129.6548  131.6813  158.9755 H   0  0  0  0  0  0  0  0  0  0  0  0
  131.5757  134.9117  161.9812 H   0  0  0  0  0  0  0  0  0  0  0  0
  131.3395  136.5660  161.3684 H   0  0  0  0  0  0  0  0  0  0  0  0
  133.4910  136.4199  160.1447 H   0  0  0  0  0  0  0  0  0  0  0  0
  133.7274  134.7655  160.7575 H   0  0  0  0  0  0  0  0  0  0  0  0
  134.9805  136.4095  162.1270 H   0  0  0  0  0  0  0  0  0  0  0  0
  133.7017  135.6237  163.0837 H   0  0  0  0  0  0  0  0  0  0  0  0
  131.7208  136.8432  163.7057 H   0  0  0  0  0  0  0  0  0  0  0  0
  130.7150  139.0255  164.2191 H   0  0  0  0  0  0  0  0  0  0  0  0
  131.6907  141.0844  163.3567 H   0  0  0  0  0  0  0  0  0  0  0  0
  133.4581  142.2110  162.0303 H   0  0  0  0  0  0  0  0  0  0  0  0
  135.4618  142.0522  160.6549 H   0  0  0  0  0  0  0  0  0  0  0  0
  136.4736  139.8702  160.1498 H   0  0  0  0  0  0  0  0  0  0  0  0
  135.4992  137.8119  161.0133 H   0  0  0  0  0  0  0  0  0  0  0  0
  127.3808  135.8690  162.7505 H   0  0  0  0  0  0  0  0  0  0  0  0
  127.0123  136.8854  161.3413 H   0  0  0  0  0  0  0  0  0  0  0  0
  124.8986  136.2060  162.1788 H   0  0  0  0  0  0  0  0  0  0  0  0
  1  2  2  0
  2 32  1  0
  2  3  1  0
  3  4  1  0
  3 33  1  0
  3 34  1  0
  4  5  1  0
  4 35  1  0
  4 36  1  0
  5  6  1  6
  5  7  1  0
  5 31  1  0
  7 37  1  0
  8  7  1  0
  8  9  1  0
  8 16  2  0
  9 10  1  0
  9 38  1  0
 10 15  1  0
 10 11  1  0
 10 39  1  0
 11 12  1  0
 11 40  1  0
 11 41  1  0
 12 13  1  0
 12 42  1  0
 12 43  1  0
 13 14  1  0
 13 44  1  0
 13 45  1  0
 14 15  1  0
 14 46  1  0
 14 47  1  0
 15 48  1  0
 15 49  1  0
 16 17  1  0
 16 18  1  0
 18 19  1  0
 18 50  1  0
 18 51  1  0
 19 20  1  0
 19 52  1  0
 19 53  1  0
 20 21  1  0
 20 54  1  0
 20 55  1  0
 21 30  1  0
 21 22  2  0
 22 23  1  0
 22 56  1  0
 23 24  2  0
 23 57  1  0
 24 25  1  0
 24 58  1  0
 25 30  2  0
 25 26  1  0
 26 27  2  0
 26 59  1  0
 27 28  1  0
 27 60  1  0
 28 29  2  0
 28 61  1  0
 29 30  1  0
 29 62  1  0
 31 32  1  0
 31 63  1  0
 31 64  1  0
 32 65  1  0
M  CHG  1  16   1
M  END
>  <DOCK_score>  (1) 
-49.541164

>  <SMILES>  (1) 
O=C1CC[C@H](NC(NC2CCCCC2)=[NH+]CCCc2cccc3ccccc23)CN1

$$$$
