Oc1ccc2c(c1)C(Nc1[nH]cc(-c3ccncc3)[nH+]1)c1cc(O)ccc1-2
     RDKit          3D

 44 48  0  0  1  0  0  0  0  0999 V2000
  131.6691  131.8615  157.6887 O   0  0  0  0  0  0  0  0  0  0  0  0
  130.4384  132.0337  158.2386 C   0  0  0  0  0  0  0  0  0  0  0  0
  129.6196  130.9359  158.4655 C   0  0  0  0  0  0  0  0  0  0  0  0
  128.3705  131.1060  159.0226 C   0  0  0  0  0  0  0  0  0  0  0  0
  127.9242  132.3855  159.3607 C   0  0  0  0  0  0  0  0  0  0  0  0
  128.7513  133.4821  159.1302 C   0  0  0  0  0  0  0  0  0  0  0  0
  129.9991  133.3079  158.5727 C   0  0  0  0  0  0  0  0  0  0  0  0
  128.0110  134.7144  159.5898 C   0  0  0  0  0  0  0  0  0  0  0  0
  128.7569  135.3810  160.6600 N   0  0  0  0  0  0  0  0  0  0  0  0
  129.1907  136.6849  160.4930 C   0  0  0  0  0  0  0  0  0  0  0  0
  129.5244  137.2637  159.3069 N   0  0  0  0  0  0  0  0  0  0  0  0
  129.5002  136.8405  158.4345 H   0  0  0  0  0  0  0  0  0  0  0  0
  129.8945  138.5581  159.5719 C   0  0  0  0  0  0  0  0  0  0  0  0
  129.7859  138.7323  160.9132 C   0  0  0  0  0  0  0  0  0  0  0  0
  130.0861  139.9778  161.6584 C   0  0  0  0  0  0  0  0  0  0  0  0
  130.5491  139.9321  162.9774 C   0  0  0  0  0  0  0  0  0  0  0  0
  130.8112  141.1150  163.6357 C   0  0  0  0  0  0  0  0  0  0  0  0
  130.6401  142.2772  163.0343 N   0  0  0  0  0  0  0  0  0  0  0  0
  130.2102  142.3645  161.7897 C   0  0  0  0  0  0  0  0  0  0  0  0
  129.9191  141.2309  161.0602 C   0  0  0  0  0  0  0  0  0  0  0  0
  129.3483  137.5653  161.4508 N   0  0  0  0  0  0  0  0  0  0  0  0
  129.1794  137.4083  162.3929 H   0  0  0  0  0  0  0  0  0  0  0  0
  126.6777  134.2329  160.1076 C   0  0  0  0  0  0  0  0  0  0  0  0
  125.6004  134.8980  160.6481 C   0  0  0  0  0  0  0  0  0  0  0  0
  124.4761  134.1889  161.0502 C   0  0  0  0  0  0  0  0  0  0  0  0
  123.4128  134.8460  161.5833 O   0  0  0  0  0  0  0  0  0  0  0  0
  124.4390  132.8085  160.9077 C   0  0  0  0  0  0  0  0  0  0  0  0
  125.5156  132.1379  160.3683 C   0  0  0  0  0  0  0  0  0  0  0  0
  126.6486  132.8466  159.9624 C   0  0  0  0  0  0  0  0  0  0  0  0
  132.1646  132.6831  157.5684 H   0  0  0  0  0  0  0  0  0  0  0  0
  129.9622  129.9456  158.2043 H   0  0  0  0  0  0  0  0  0  0  0  0
  127.7363  130.2495  159.1976 H   0  0  0  0  0  0  0  0  0  0  0  0
  130.6360  134.1621  158.3966 H   0  0  0  0  0  0  0  0  0  0  0  0
  127.8642  135.3977  158.7533 H   0  0  0  0  0  0  0  0  0  0  0  0
  128.9468  134.9087  161.4858 H   0  0  0  0  0  0  0  0  0  0  0  0
  130.2132  139.2964  158.8510 H   0  0  0  0  0  0  0  0  0  0  0  0
  130.6955  138.9842  163.4743 H   0  0  0  0  0  0  0  0  0  0  0  0
  131.1656  141.0900  164.6556 H   0  0  0  0  0  0  0  0  0  0  0  0
  130.0846  143.3365  161.3363 H   0  0  0  0  0  0  0  0  0  0  0  0
  129.5679  141.3096  160.0420 H   0  0  0  0  0  0  0  0  0  0  0  0
  125.6297  135.9719  160.7591 H   0  0  0  0  0  0  0  0  0  0  0  0
  123.5317  135.8038  161.6423 H   0  0  0  0  0  0  0  0  0  0  0  0
  123.5640  132.2583  161.2209 H   0  0  0  0  0  0  0  0  0  0  0  0
  125.4830  131.0640  160.2591 H   0  0  0  0  0  0  0  0  0  0  0  0
  1  2  1  0
  1 30  1  0
  2  7  2  0
  2  3  1  0
  3  4  2  0
  3 31  1  0
  4  5  1  0
  4 32  1  0
  5 29  1  0
  5  6  2  0
  6  7  1  0
  6  8  1  0
  7 33  1  0
  8  9  1  0
  8 23  1  0
  8 34  1  0
  9 35  1  0
 10  9  1  0
 10 21  2  0
 10 11  1  0
 11 12  1  0
 11 13  1  0
 13 14  2  0
 13 36  1  0
 14 15  1  0
 14 21  1  0
 15 20  1  0
 15 16  2  0
 16 17  1  0
 16 37  1  0
 17 18  2  0
 17 38  1  0
 18 19  1  0
 19 20  2  0
 19 39  1  0
 20 40  1  0
 21 22  1  0
 23 29  2  0
 23 24  1  0
 24 25  2  0
 24 41  1  0
 25 26  1  0
 25 27  1  0
 26 42  1  0
 27 28  2  0
 27 43  1  0
 28 29  1  0
 28 44  1  0
M  CHG  1  21   1
M  END
>  <DOCK_score>  (1) 
-41.699974

>  <SMILES>  (1) 
Oc1ccc2c(c1)C(Nc1[nH]cc(-c3ccncc3)[nH+]1)c1cc(O)ccc1-2

$$$$
