O=C(CCc1c[nH+]c(NC(Cc2ccccc2)Cc2ccccc2)[nH]1)NCCF
     RDKit          3D

 57 59  0  0  1  0  0  0  0  0999 V2000
  127.8471  134.4562  162.6904 O   0  0  0  0  0  0  0  0  0  0  0  0
  126.9129  134.9009  162.0576 C   0  0  0  0  0  0  0  0  0  0  0  0
  126.3275  134.1059  160.9190 C   0  0  0  0  0  0  0  0  0  0  0  0
  127.4202  133.2430  160.2846 C   0  0  0  0  0  0  0  0  0  0  0  0
  128.5216  134.1300  159.7638 C   0  0  0  0  0  0  0  0  0  0  0  0
  128.6060  134.6609  158.5322 C   0  0  0  0  0  0  0  0  0  0  0  0
  129.7337  135.3885  158.4623 N   0  0  0  0  0  0  0  0  0  0  0  0
  130.0372  135.8801  157.6831 H   0  0  0  0  0  0  0  0  0  0  0  0
  130.3596  135.3302  159.6140 C   0  0  0  0  0  0  0  0  0  0  0  0
  131.5575  135.9556  159.9174 N   0  0  0  0  0  0  0  0  0  0  0  0
  132.1459  135.8037  161.2504 C   0  0  0  0  0  0  0  0  0  0  0  0
  133.0730  134.5867  161.2630 C   0  0  0  0  0  0  0  0  0  0  0  0
  132.2835  133.3501  160.9187 C   0  0  0  0  0  0  0  0  0  0  0  0
  131.6866  132.6096  161.9219 C   0  0  0  0  0  0  0  0  0  0  0  0
  130.9583  131.4780  161.6057 C   0  0  0  0  0  0  0  0  0  0  0  0
  130.8356  131.0811  160.2873 C   0  0  0  0  0  0  0  0  0  0  0  0
  131.4367  131.8188  159.2846 C   0  0  0  0  0  0  0  0  0  0  0  0
  132.1606  132.9533  159.6003 C   0  0  0  0  0  0  0  0  0  0  0  0
  132.9475  137.0591  161.6001 C   0  0  0  0  0  0  0  0  0  0  0  0
  132.0343  138.2580  161.5878 C   0  0  0  0  0  0  0  0  0  0  0  0
  131.8594  138.9815  160.4231 C   0  0  0  0  0  0  0  0  0  0  0  0
  131.0179  140.0782  160.4105 C   0  0  0  0  0  0  0  0  0  0  0  0
  130.3597  140.4575  161.5655 C   0  0  0  0  0  0  0  0  0  0  0  0
  130.5387  139.7371  162.7316 C   0  0  0  0  0  0  0  0  0  0  0  0
  131.3762  138.6372  162.7427 C   0  0  0  0  0  0  0  0  0  0  0  0
  129.6355  134.5463  160.4574 N   0  0  0  0  0  0  0  0  0  0  0  0
  129.8603  134.3242  161.3745 H   0  0  0  0  0  0  0  0  0  0  0  0
  126.3986  136.1062  162.3724 N   0  0  0  0  0  0  0  0  0  0  0  0
  126.9677  136.8790  163.4792 C   0  0  0  0  0  0  0  0  0  0  0  0
  128.0860  137.7795  162.9504 C   0  0  0  0  0  0  0  0  0  0  0  0
  127.5660  138.6539  161.9901 F   0  0  0  0  0  0  0  0  0  0  0  0
  125.9222  134.7871  160.1708 H   0  0  0  0  0  0  0  0  0  0  0  0
  125.5309  133.4644  161.2957 H   0  0  0  0  0  0  0  0  0  0  0  0
  126.9967  132.6680  159.4611 H   0  0  0  0  0  0  0  0  0  0  0  0
  127.8254  132.5618  161.0328 H   0  0  0  0  0  0  0  0  0  0  0  0
  127.8900  134.5263  157.7350 H   0  0  0  0  0  0  0  0  0  0  0  0
  132.0087  136.4910  159.2462 H   0  0  0  0  0  0  0  0  0  0  0  0
  131.3522  135.6635  161.9842 H   0  0  0  0  0  0  0  0  0  0  0  0
  133.8667  134.7270  160.5291 H   0  0  0  0  0  0  0  0  0  0  0  0
  133.5110  134.4739  162.2548 H   0  0  0  0  0  0  0  0  0  0  0  0
  131.7863  132.9172  162.9524 H   0  0  0  0  0  0  0  0  0  0  0  0
  130.4890  130.9015  162.3892 H   0  0  0  0  0  0  0  0  0  0  0  0
  130.2702  130.1945  160.0406 H   0  0  0  0  0  0  0  0  0  0  0  0
  131.3410  131.5085  158.2545 H   0  0  0  0  0  0  0  0  0  0  0  0
  132.6306  133.5292  158.8170 H   0  0  0  0  0  0  0  0  0  0  0  0
  133.3853  136.9462  162.5918 H   0  0  0  0  0  0  0  0  0  0  0  0
  133.7412  137.1996  160.8663 H   0  0  0  0  0  0  0  0  0  0  0  0
  132.3770  138.6879  159.5219 H   0  0  0  0  0  0  0  0  0  0  0  0
  130.8783  140.6413  159.4996 H   0  0  0  0  0  0  0  0  0  0  0  0
  129.7058  141.3171  161.5568 H   0  0  0  0  0  0  0  0  0  0  0  0
  130.0248  140.0337  163.6339 H   0  0  0  0  0  0  0  0  0  0  0  0
  131.5163  138.0745  163.6538 H   0  0  0  0  0  0  0  0  0  0  0  0
  125.6515  136.4619  161.8662 H   0  0  0  0  0  0  0  0  0  0  0  0
  126.1895  137.4937  163.9312 H   0  0  0  0  0  0  0  0  0  0  0  0
  127.3730  136.1977  164.2273 H   0  0  0  0  0  0  0  0  0  0  0  0
  128.5097  138.3545  163.7740 H   0  0  0  0  0  0  0  0  0  0  0  0
  128.8643  137.1647  162.4984 H   0  0  0  0  0  0  0  0  0  0  0  0
  1  2  2  0
  2  3  1  0
  2 28  1  0
  3  4  1  0
  3 32  1  0
  3 33  1  0
  4  5  1  0
  4 34  1  0
  4 35  1  0
  5 26  1  0
  5  6  2  0
  6  7  1  0
  6 36  1  0
  7  8  1  0
  7  9  2  0
  9 10  1  0
  9 26  1  0
 10 11  1  0
 10 37  1  0
 11 12  1  0
 11 19  1  0
 11 38  1  0
 12 13  1  0
 12 39  1  0
 12 40  1  0
 13 18  1  0
 13 14  2  0
 14 15  1  0
 14 41  1  0
 15 16  2  0
 15 42  1  0
 16 17  1  0
 16 43  1  0
 17 18  2  0
 17 44  1  0
 18 45  1  0
 19 20  1  0
 19 46  1  0
 19 47  1  0
 20 25  1  0
 20 21  2  0
 21 22  1  0
 21 48  1  0
 22 23  2  0
 22 49  1  0
 23 24  1  0
 23 50  1  0
 24 25  2  0
 24 51  1  0
 25 52  1  0
 26 27  1  0
 28 29  1  0
 28 53  1  0
 29 30  1  0
 29 54  1  0
 29 55  1  0
 30 31  1  0
 30 56  1  0
 30 57  1  0
M  CHG  1   7   1
M  END
>  <DOCK_score>  (1) 
-46.650379

>  <SMILES>  (1) 
O=C(CCc1c[nH+]c(NC(Cc2ccccc2)Cc2ccccc2)[nH]1)NCCF

$$$$
