Fc1c(NC[C@@H]2CC2(F)F)cc(NCC2CC=CC2)cc1Nc1[nH]c2ccccc2[nH+]1
     RDKit          3D

 56 60  0  0  1  0  0  0  0  0999 V2000
  128.1287  134.4757  159.6235 F   0  0  0  0  0  0  0  0  0  0  0  0
  128.3902  135.6246  160.2844 C   0  0  0  0  0  0  0  0  0  0  0  0
  127.4947  136.0988  161.2352 C   0  0  0  0  0  0  0  0  0  0  0  0
  126.3229  135.3863  161.5089 N   0  0  0  0  0  0  0  0  0  0  0  0
  126.0394  134.1398  160.7932 C   0  0  0  0  0  0  0  0  0  0  0  0
  124.7062  133.5658  161.2768 C   0  0  2  0  0  0  0  0  0  0  0  0
  123.8374  134.2079  161.1311 H   0  0  0  0  0  0  0  0  0  0  0  0
  124.7293  132.6800  162.5241 C   0  0  0  0  0  0  0  0  0  0  0  0
  124.4984  132.0557  161.1465 C   0  0  0  0  0  0  0  0  0  0  0  0
  123.2079  131.6045  160.8500 F   0  0  0  0  0  0  0  0  0  0  0  0
  125.5421  131.3053  160.5943 F   0  0  0  0  0  0  0  0  0  0  0  0
  127.7637  137.2795  161.9136 C   0  0  0  0  0  0  0  0  0  0  0  0
  128.9274  137.9864  161.6425 C   0  0  0  0  0  0  0  0  0  0  0  0
  129.1980  139.1753  162.3264 N   0  0  0  0  0  0  0  0  0  0  0  0
  128.2537  139.6750  163.3288 C   0  0  0  0  0  0  0  0  0  0  0  0
  128.7841  140.9813  163.9228 C   0  0  0  0  0  0  0  0  0  0  0  0
  130.0548  140.7315  164.7677 C   0  0  0  0  0  0  0  0  0  0  0  0
  129.9310  141.6818  165.9367 C   0  0  0  0  0  0  0  0  0  0  0  0
  128.7088  142.1237  166.0562 C   0  0  0  0  0  0  0  0  0  0  0  0
  127.8129  141.5418  164.9876 C   0  0  0  0  0  0  0  0  0  0  0  0
  129.8194  137.5163  160.6888 C   0  0  0  0  0  0  0  0  0  0  0  0
  129.5538  136.3325  160.0133 C   0  0  0  0  0  0  0  0  0  0  0  0
  130.4565  135.8555  159.0556 N   0  0  0  0  0  0  0  0  0  0  0  0
  130.5716  134.5025  158.8323 C   0  0  0  0  0  0  0  0  0  0  0  0
  130.8991  133.9471  157.6674 N   0  0  0  0  0  0  0  0  0  0  0  0
  131.0932  134.4250  156.8460 H   0  0  0  0  0  0  0  0  0  0  0  0
  130.9186  132.5866  157.8262 C   0  0  0  0  0  0  0  0  0  0  0  0
  131.1903  131.5212  156.9727 C   0  0  0  0  0  0  0  0  0  0  0  0
  131.1178  130.2289  157.4457 C   0  0  0  0  0  0  0  0  0  0  0  0
  130.7754  129.9816  158.7670 C   0  0  0  0  0  0  0  0  0  0  0  0
  130.5037  131.0247  159.6255 C   0  0  0  0  0  0  0  0  0  0  0  0
  130.5723  132.3362  159.1642 C   0  0  0  0  0  0  0  0  0  0  0  0
  130.3665  133.5582  159.7480 N   0  0  0  0  0  0  0  0  0  0  0  0
  130.1136  133.7099  160.6721 H   0  0  0  0  0  0  0  0  0  0  0  0
  125.6978  135.7174  162.1727 H   0  0  0  0  0  0  0  0  0  0  0  0
  125.9820  134.3402  159.7232 H   0  0  0  0  0  0  0  0  0  0  0  0
  126.8358  133.4210  160.9859 H   0  0  0  0  0  0  0  0  0  0  0  0
  125.6944  132.5063  163.0001 H   0  0  0  0  0  0  0  0  0  0  0  0
  123.8757  132.7392  163.1993 H   0  0  0  0  0  0  0  0  0  0  0  0
  127.0676  137.6480  162.6526 H   0  0  0  0  0  0  0  0  0  0  0  0
  130.0110  139.6694  162.1373 H   0  0  0  0  0  0  0  0  0  0  0  0
  128.1399  138.9353  164.1214 H   0  0  0  0  0  0  0  0  0  0  0  0
  127.2869  139.8556  162.8589 H   0  0  0  0  0  0  0  0  0  0  0  0
  128.9730  141.7162  163.1401 H   0  0  0  0  0  0  0  0  0  0  0  0
  130.0807  139.6996  165.1183 H   0  0  0  0  0  0  0  0  0  0  0  0
  130.9483  140.9582  164.1860 H   0  0  0  0  0  0  0  0  0  0  0  0
  130.7473  141.9591  166.5872 H   0  0  0  0  0  0  0  0  0  0  0  0
  128.3807  142.8145  166.8189 H   0  0  0  0  0  0  0  0  0  0  0  0
  127.1829  142.3192  164.5554 H   0  0  0  0  0  0  0  0  0  0  0  0
  127.1997  140.7410  165.4010 H   0  0  0  0  0  0  0  0  0  0  0  0
  130.7221  138.0692  160.4750 H   0  0  0  0  0  0  0  0  0  0  0  0
  131.0008  136.4787  158.5494 H   0  0  0  0  0  0  0  0  0  0  0  0
  131.4575  131.7067  155.9429 H   0  0  0  0  0  0  0  0  0  0  0  0
  131.3288  129.4028  156.7828 H   0  0  0  0  0  0  0  0  0  0  0  0
  130.7216  128.9642  159.1256 H   0  0  0  0  0  0  0  0  0  0  0  0
  130.2384  130.8252  160.6533 H   0  0  0  0  0  0  0  0  0  0  0  0
  1  2  1  0
  2 22  2  0
  2  3  1  0
  3  4  1  0
  3 12  2  0
  4  5  1  0
  4 35  1  0
  5  6  1  0
  5 36  1  0
  5 37  1  0
  6  7  1  1
  6  9  1  0
  6  8  1  0
  8  9  1  0
  8 38  1  0
  8 39  1  0
  9 10  1  0
  9 11  1  0
 12 13  1  0
 12 40  1  0
 13 14  1  0
 13 21  2  0
 14 15  1  0
 14 41  1  0
 15 16  1  0
 15 42  1  0
 15 43  1  0
 16 20  1  0
 16 17  1  0
 16 44  1  0
 17 18  1  0
 17 45  1  0
 17 46  1  0
 18 19  2  0
 18 47  1  0
 19 20  1  0
 19 48  1  0
 20 49  1  0
 20 50  1  0
 21 22  1  0
 21 51  1  0
 22 23  1  0
 23 24  1  0
 23 52  1  0
 24 33  1  0
 24 25  2  0
 25 26  1  0
 25 27  1  0
 27 32  2  0
 27 28  1  0
 28 29  2  0
 28 53  1  0
 29 30  1  0
 29 54  1  0
 30 31  2  0
 30 55  1  0
 31 32  1  0
 31 56  1  0
 32 33  1  0
 33 34  1  0
M  CHG  1  25   1
M  END
>  <DOCK_score>  (1) 
-49.806919

>  <SMILES>  (1) 
Fc1c(NC[C@@H]2CC2(F)F)cc(NCC2CC=CC2)cc1Nc1[nH]c2ccccc2[nH+]1

$$$$
