Cc1c(NC[C@@H]2CC(O)C2(C)C)cccc1N1CC[NH+](CCc2ccccn2)CC1
     RDKit          3D

 67 70  0  0  1  0  0  0  0  0999 V2000
  126.3950  135.6743  160.9426 C   0  0  0  0  0  0  0  0  0  0  0  0
  127.6179  136.5493  161.0433 C   0  0  0  0  0  0  0  0  0  0  0  0
  127.6361  137.6201  161.9261 C   0  0  0  0  0  0  0  0  0  0  0  0
  126.5204  137.8890  162.7222 N   0  0  0  0  0  0  0  0  0  0  0  0
  126.6631  138.7014  163.9329 C   0  0  0  0  0  0  0  0  0  0  0  0
  127.6450  138.0224  164.8898 C   0  0  2  0  0  0  0  0  0  0  0  0
  128.5005  137.5828  164.3769 H   0  0  0  0  0  0  0  0  0  0  0  0
  126.9706  137.0696  165.8908 C   0  0  0  0  0  0  0  0  0  0  0  0
  127.9492  137.6152  166.9467 C   0  0  2  0  0  0  0  0  0  0  0  0
  127.3558  137.8186  168.2307 O   0  0  0  0  0  0  0  0  0  0  0  0
  128.0316  138.8940  166.0964 C   0  0  0  0  0  0  0  0  0  0  0  0
  129.4426  139.4783  166.0034 C   0  0  0  0  0  0  0  0  0  0  0  0
  126.9764  139.9406  166.4597 C   0  0  0  0  0  0  0  0  0  0  0  0
  128.7654  138.4247  162.0168 C   0  0  0  0  0  0  0  0  0  0  0  0
  129.8694  138.1596  161.2292 C   0  0  0  0  0  0  0  0  0  0  0  0
  129.8524  137.0981  160.3453 C   0  0  0  0  0  0  0  0  0  0  0  0
  128.7282  136.2859  160.2540 C   0  0  0  0  0  0  0  0  0  0  0  0
  128.7142  135.2091  159.3645 N   0  0  0  0  0  0  0  0  0  0  0  0
  129.7258  134.2086  159.7328 C   0  0  0  0  0  0  0  0  0  0  0  0
  129.6377  133.0209  158.7719 C   0  0  0  0  0  0  0  0  0  0  0  0
  129.8620  133.4858  157.3967 N   0  0  0  0  0  0  0  0  0  0  0  0
  130.7720  133.9168  157.3320 H   0  0  0  0  0  0  0  0  0  0  0  0
  129.7953  132.3426  156.4766 C   0  0  0  0  0  0  0  0  0  0  0  0
  130.4983  132.7012  155.1659 C   0  0  0  0  0  0  0  0  0  0  0  0
  130.4298  131.5284  154.2220 C   0  0  0  0  0  0  0  0  0  0  0  0
  131.4328  130.5773  154.2403 C   0  0  0  0  0  0  0  0  0  0  0  0
  131.3603  129.5021  153.3683 C   0  0  0  0  0  0  0  0  0  0  0  0
  130.2767  129.4232  152.5066 C   0  0  0  0  0  0  0  0  0  0  0  0
  129.3122  130.4120  152.5454 C   0  0  0  0  0  0  0  0  0  0  0  0
  129.4114  131.4183  153.3920 N   0  0  0  0  0  0  0  0  0  0  0  0
  128.8295  134.4661  157.0350 C   0  0  0  0  0  0  0  0  0  0  0  0
  128.9109  135.6657  157.9815 C   0  0  0  0  0  0  0  0  0  0  0  0
  125.7229  136.0751  160.1840 H   0  0  0  0  0  0  0  0  0  0  0  0
  126.6935  134.6631  160.6658 H   0  0  0  0  0  0  0  0  0  0  0  0
  125.8843  135.6515  161.9053 H   0  0  0  0  0  0  0  0  0  0  0  0
  125.6512  137.5378  162.4734 H   0  0  0  0  0  0  0  0  0  0  0  0
  127.0400  139.6887  163.6657 H   0  0  0  0  0  0  0  0  0  0  0  0
  125.6928  138.8021  164.4193 H   0  0  0  0  0  0  0  0  0  0  0  0
  125.9282  137.3155  166.0933 H   0  0  0  0  0  0  0  0  0  0  0  0
  127.1205  136.0151  165.6589 H   0  0  0  0  0  0  0  0  0  0  0  0
  128.8877  137.0631  166.9968 H   0  0  0  0  0  0  0  0  0  0  0  0
  127.8275  138.4545  168.7857 H   0  0  0  0  0  0  0  0  0  0  0  0
  129.5193  140.1027  165.1134 H   0  0  0  0  0  0  0  0  0  0  0  0
  129.6453  140.0810  166.8887 H   0  0  0  0  0  0  0  0  0  0  0  0
  130.1683  138.6674  165.9420 H   0  0  0  0  0  0  0  0  0  0  0  0
  126.0393  139.4413  166.7060 H   0  0  0  0  0  0  0  0  0  0  0  0
  127.3176  140.5174  167.3194 H   0  0  0  0  0  0  0  0  0  0  0  0
  126.8205  140.6086  165.6126 H   0  0  0  0  0  0  0  0  0  0  0  0
  128.7804  139.2579  162.7037 H   0  0  0  0  0  0  0  0  0  0  0  0
  130.7459  138.7865  161.3016 H   0  0  0  0  0  0  0  0  0  0  0  0
  130.7153  136.8965  159.7279 H   0  0  0  0  0  0  0  0  0  0  0  0
  130.7183  134.6547  159.6696 H   0  0  0  0  0  0  0  0  0  0  0  0
  129.5447  133.8662  160.7517 H   0  0  0  0  0  0  0  0  0  0  0  0
  128.6496  132.5667  158.8452 H   0  0  0  0  0  0  0  0  0  0  0  0
  130.3967  132.2840  159.0346 H   0  0  0  0  0  0  0  0  0  0  0  0
  130.2879  131.4823  156.9297 H   0  0  0  0  0  0  0  0  0  0  0  0
  128.7522  132.0991  156.2747 H   0  0  0  0  0  0  0  0  0  0  0  0
  130.0056  133.5615  154.7129 H   0  0  0  0  0  0  0  0  0  0  0  0
  131.5415  132.9445  155.3679 H   0  0  0  0  0  0  0  0  0  0  0  0
  132.2628  130.6710  154.9250 H   0  0  0  0  0  0  0  0  0  0  0  0
  132.1291  128.7437  153.3605 H   0  0  0  0  0  0  0  0  0  0  0  0
  130.1876  128.5994  151.8140 H   0  0  0  0  0  0  0  0  0  0  0  0
  128.4651  130.3578  151.8776 H   0  0  0  0  0  0  0  0  0  0  0  0
  127.8456  134.0044  157.1172 H   0  0  0  0  0  0  0  0  0  0  0  0
  128.9893  134.8004  156.0099 H   0  0  0  0  0  0  0  0  0  0  0  0
  128.1352  136.3864  157.7226 H   0  0  0  0  0  0  0  0  0  0  0  0
  129.8898  136.1362  157.8895 H   0  0  0  0  0  0  0  0  0  0  0  0
  1  2  1  0
  1 33  1  0
  1 34  1  0
  1 35  1  0
  2 17  2  0
  2  3  1  0
  3  4  1  0
  3 14  2  0
  4  5  1  0
  4 36  1  0
  5  6  1  0
  5 37  1  0
  5 38  1  0
  6  7  1  6
  6 11  1  0
  6  8  1  0
  8  9  1  0
  8 39  1  0
  8 40  1  0
  9 10  1  0
  9 11  1  0
  9 41  1  1
 10 42  1  0
 11 12  1  0
 11 13  1  0
 12 43  1  0
 12 44  1  0
 12 45  1  0
 13 46  1  0
 13 47  1  0
 13 48  1  0
 14 15  1  0
 14 49  1  0
 15 16  2  0
 15 50  1  0
 16 17  1  0
 16 51  1  0
 17 18  1  0
 18 32  1  0
 18 19  1  0
 19 20  1  0
 19 52  1  0
 19 53  1  0
 20 21  1  0
 20 54  1  0
 20 55  1  0
 21 22  1  0
 21 23  1  0
 21 31  1  0
 23 24  1  0
 23 56  1  0
 23 57  1  0
 24 25  1  0
 24 58  1  0
 24 59  1  0
 25 30  1  0
 25 26  2  0
 26 27  1  0
 26 60  1  0
 27 28  2  0
 27 61  1  0
 28 29  1  0
 28 62  1  0
 29 30  2  0
 29 63  1  0
 31 32  1  0
 31 64  1  0
 31 65  1  0
 32 66  1  0
 32 67  1  0
M  CHG  1  21   1
M  END
>  <DOCK_score>  (1) 
-42.272797

>  <SMILES>  (1) 
Cc1c(NC[C@@H]2CC(O)C2(C)C)cccc1N1CC[NH+](CCc2ccccn2)CC1

$$$$
