O=C1C=CC(O)(c2ccc(Nc3[nH]cc(-c4ccccc4)[nH+]3)c(SCC3CCCC3)c2)C=C1
     RDKit          3D

 61 65  0  0  1  0  0  0  0  0999 V2000
  130.4337  137.8346  165.9691 O   0  0  0  0  0  0  0  0  0  0  0  0
  129.4199  137.5472  165.3607 C   0  0  0  0  0  0  0  0  0  0  0  0
  128.9069  136.1645  165.3439 C   0  0  0  0  0  0  0  0  0  0  0  0
  128.0148  135.8117  164.4278 C   0  0  0  0  0  0  0  0  0  0  0  0
  127.5023  136.7529  163.3838 C   0  0  0  0  0  0  0  0  0  0  0  0
  126.0906  136.5717  163.2544 O   0  0  0  0  0  0  0  0  0  0  0  0
  128.1559  136.4198  162.0674 C   0  0  0  0  0  0  0  0  0  0  0  0
  127.3779  136.0507  160.9854 C   0  0  0  0  0  0  0  0  0  0  0  0
  127.9706  135.7484  159.7733 C   0  0  0  0  0  0  0  0  0  0  0  0
  129.3498  135.8045  159.6427 C   0  0  0  0  0  0  0  0  0  0  0  0
  129.9526  135.4940  158.4173 N   0  0  0  0  0  0  0  0  0  0  0  0
  129.7783  134.2391  157.8582 C   0  0  0  0  0  0  0  0  0  0  0  0
  129.0432  133.2268  158.3950 N   0  0  0  0  0  0  0  0  0  0  0  0
  128.5520  133.2543  159.2310 H   0  0  0  0  0  0  0  0  0  0  0  0
  129.1262  132.1595  157.5350 C   0  0  0  0  0  0  0  0  0  0  0  0
  129.9087  132.5493  156.4980 C   0  0  0  0  0  0  0  0  0  0  0  0
  130.2784  131.7212  155.3241 C   0  0  0  0  0  0  0  0  0  0  0  0
  129.9236  132.1303  154.0398 C   0  0  0  0  0  0  0  0  0  0  0  0
  130.2748  131.3585  152.9510 C   0  0  0  0  0  0  0  0  0  0  0  0
  130.9674  130.1757  153.1329 C   0  0  0  0  0  0  0  0  0  0  0  0
  131.3177  129.7615  154.4060 C   0  0  0  0  0  0  0  0  0  0  0  0
  130.9769  130.5281  155.5017 C   0  0  0  0  0  0  0  0  0  0  0  0
  130.2891  133.8318  156.7216 N   0  0  0  0  0  0  0  0  0  0  0  0
  130.8512  134.3621  156.1355 H   0  0  0  0  0  0  0  0  0  0  0  0
  130.1355  136.1717  160.7359 C   0  0  0  0  0  0  0  0  0  0  0  0
  131.8889  136.2461  160.5788 S   0  0  0  0  0  0  0  0  0  0  0  0
  132.2602  137.9788  160.9671 C   0  0  0  0  0  0  0  0  0  0  0  0
  133.7696  138.2104  160.8730 C   0  0  0  0  0  0  0  0  0  0  0  0
  134.1500  139.5169  161.5995 C   0  0  0  0  0  0  0  0  0  0  0  0
  135.2746  140.1244  160.7233 C   0  0  0  0  0  0  0  0  0  0  0  0
  134.8032  139.7957  159.2849 C   0  0  0  0  0  0  0  0  0  0  0  0
  134.1851  138.3872  159.4021 C   0  0  0  0  0  0  0  0  0  0  0  0
  129.5316  136.4785  161.9469 C   0  0  0  0  0  0  0  0  0  0  0  0
  127.7736  138.1884  163.7068 C   0  0  0  0  0  0  0  0  0  0  0  0
  128.6625  138.5695  164.6146 C   0  0  0  0  0  0  0  0  0  0  0  0
  129.2547  135.4454  166.0708 H   0  0  0  0  0  0  0  0  0  0  0  0
  127.6415  134.7983  164.4357 H   0  0  0  0  0  0  0  0  0  0  0  0
  125.6831  137.1284  162.5769 H   0  0  0  0  0  0  0  0  0  0  0  0
  126.3036  136.0024  161.0863 H   0  0  0  0  0  0  0  0  0  0  0  0
  127.3593  135.4642  158.9294 H   0  0  0  0  0  0  0  0  0  0  0  0
  130.4923  136.1579  157.9603 H   0  0  0  0  0  0  0  0  0  0  0  0
  128.6580  131.1943  157.6603 H   0  0  0  0  0  0  0  0  0  0  0  0
  129.3788  133.0518  153.8968 H   0  0  0  0  0  0  0  0  0  0  0  0
  130.0042  131.6768  151.9550 H   0  0  0  0  0  0  0  0  0  0  0  0
  131.2363  129.5727  152.2781 H   0  0  0  0  0  0  0  0  0  0  0  0
  131.8593  128.8372  154.5424 H   0  0  0  0  0  0  0  0  0  0  0  0
  131.2510  130.2045  156.4949 H   0  0  0  0  0  0  0  0  0  0  0  0
  131.7481  138.6281  160.2570 H   0  0  0  0  0  0  0  0  0  0  0  0
  131.9200  138.2056  161.9775 H   0  0  0  0  0  0  0  0  0  0  0  0
  134.3045  137.3688  161.3134 H   0  0  0  0  0  0  0  0  0  0  0  0
  133.2950  140.1915  161.6442 H   0  0  0  0  0  0  0  0  0  0  0  0
  134.5205  139.3021  162.6019 H   0  0  0  0  0  0  0  0  0  0  0  0
  136.2303  139.6454  160.9357 H   0  0  0  0  0  0  0  0  0  0  0  0
  135.3433  141.2023  160.8703 H   0  0  0  0  0  0  0  0  0  0  0  0
  135.6504  139.7847  158.5991 H   0  0  0  0  0  0  0  0  0  0  0  0
  134.0543  140.5146  158.9530 H   0  0  0  0  0  0  0  0  0  0  0  0
  134.9221  137.6320  159.1288 H   0  0  0  0  0  0  0  0  0  0  0  0
  133.3114  138.3071  158.7550 H   0  0  0  0  0  0  0  0  0  0  0  0
  130.1366  136.7634  162.7951 H   0  0  0  0  0  0  0  0  0  0  0  0
  127.2203  138.9492  163.1763 H   0  0  0  0  0  0  0  0  0  0  0  0
  128.8302  139.6192  164.8058 H   0  0  0  0  0  0  0  0  0  0  0  0
  1  2  2  0
  2 35  1  0
  2  3  1  0
  3  4  2  0
  3 36  1  0
  4  5  1  0
  4 37  1  0
  5  6  1  0
  5  7  1  0
  5 34  1  0
  6 38  1  0
  7 33  1  0
  7  8  2  0
  8  9  1  0
  8 39  1  0
  9 10  2  0
  9 40  1  0
 10 11  1  0
 10 25  1  0
 11 41  1  0
 12 11  1  0
 12 23  2  0
 12 13  1  0
 13 14  1  0
 13 15  1  0
 15 16  2  0
 15 42  1  0
 16 17  1  0
 16 23  1  0
 17 22  1  0
 17 18  2  0
 18 19  1  0
 18 43  1  0
 19 20  2  0
 19 44  1  0
 20 21  1  0
 20 45  1  0
 21 22  2  0
 21 46  1  0
 22 47  1  0
 23 24  1  0
 25 26  1  0
 25 33  2  0
 26 27  1  0
 27 28  1  0
 27 48  1  0
 27 49  1  0
 28 32  1  0
 28 29  1  0
 28 50  1  0
 29 30  1  0
 29 51  1  0
 29 52  1  0
 30 31  1  0
 30 53  1  0
 30 54  1  0
 31 32  1  0
 31 55  1  0
 31 56  1  0
 32 57  1  0
 32 58  1  0
 33 59  1  0
 34 35  2  0
 34 60  1  0
 35 61  1  0
M  CHG  1  23   1
M  END
>  <DOCK_score>  (1) 
-58.055817

>  <SMILES>  (1) 
O=C1C=CC(O)(c2ccc(Nc3[nH]cc(-c4ccccc4)[nH+]3)c(SCC3CCCC3)c2)C=C1

$$$$
