Nc1ccc(-c2c[nH]c(N[C@H](c3ccc(N)cc3)c3ccc(I)cc3)[nH+]2)cc1
     RDKit          3D

 49 52  0  0  1  0  0  0  0  0999 V2000
  131.1900  129.8079  151.8397 N   0  0  0  0  0  0  0  0  0  0  0  0
  130.9903  130.4620  153.0578 C   0  0  0  0  0  0  0  0  0  0  0  0
  130.5150  131.7678  153.0745 C   0  0  0  0  0  0  0  0  0  0  0  0
  130.3170  132.4155  154.2757 C   0  0  0  0  0  0  0  0  0  0  0  0
  130.5941  131.7593  155.4740 C   0  0  0  0  0  0  0  0  0  0  0  0
  130.3818  132.4539  156.7676 C   0  0  0  0  0  0  0  0  0  0  0  0
  129.5435  132.0586  157.7574 C   0  0  0  0  0  0  0  0  0  0  0  0
  129.6568  132.9831  158.7686 N   0  0  0  0  0  0  0  0  0  0  0  0
  129.1801  132.9720  159.6133 H   0  0  0  0  0  0  0  0  0  0  0  0
  130.5618  133.9160  158.3658 C   0  0  0  0  0  0  0  0  0  0  0  0
  130.9614  135.0207  159.0983 N   0  0  0  0  0  0  0  0  0  0  0  0
  130.9687  134.9654  160.5623 C   0  0  2  0  0  0  0  0  0  0  0  0
  131.3337  133.9911  160.8872 H   0  0  0  0  0  0  0  0  0  0  0  0
  129.5691  135.1757  161.0798 C   0  0  0  0  0  0  0  0  0  0  0  0
  128.6790  135.9557  160.3645 C   0  0  0  0  0  0  0  0  0  0  0  0
  127.3957  136.1508  160.8362 C   0  0  0  0  0  0  0  0  0  0  0  0
  126.9995  135.5625  162.0307 C   0  0  0  0  0  0  0  0  0  0  0  0
  125.7027  135.7584  162.5108 N   0  0  0  0  0  0  0  0  0  0  0  0
  127.8979  134.7839  162.7492 C   0  0  0  0  0  0  0  0  0  0  0  0
  129.1779  134.5886  162.2691 C   0  0  0  0  0  0  0  0  0  0  0  0
  131.8712  136.0453  161.1012 C   0  0  0  0  0  0  0  0  0  0  0  0
  133.2103  135.7811  161.3204 C   0  0  0  0  0  0  0  0  0  0  0  0
  134.0395  136.7731  161.8093 C   0  0  0  0  0  0  0  0  0  0  0  0
  133.5272  138.0266  162.0895 C   0  0  0  0  0  0  0  0  0  0  0  0
  134.7818  139.5278  162.8388 I   0  0  0  0  0  0  0  0  0  0  0  0
  132.1863  138.2888  161.8755 C   0  0  0  0  0  0  0  0  0  0  0  0
  131.3587  137.2981  161.3817 C   0  0  0  0  0  0  0  0  0  0  0  0
  130.9884  133.5995  157.1674 N   0  0  0  0  0  0  0  0  0  0  0  0
  131.6362  134.1029  156.6500 H   0  0  0  0  0  0  0  0  0  0  0  0
  131.0760  130.4514  155.4547 C   0  0  0  0  0  0  0  0  0  0  0  0
  131.2667  129.8056  154.2514 C   0  0  0  0  0  0  0  0  0  0  0  0
  130.9969  130.2650  151.0064 H   0  0  0  0  0  0  0  0  0  0  0  0
  131.5217  128.8964  151.8274 H   0  0  0  0  0  0  0  0  0  0  0  0
  130.3008  132.2758  152.1459 H   0  0  0  0  0  0  0  0  0  0  0  0
  129.9472  133.4301  154.2881 H   0  0  0  0  0  0  0  0  0  0  0  0
  128.9084  131.1852  157.7520 H   0  0  0  0  0  0  0  0  0  0  0  0
  131.2367  135.8313  158.6422 H   0  0  0  0  0  0  0  0  0  0  0  0
  128.9878  136.4131  159.4362 H   0  0  0  0  0  0  0  0  0  0  0  0
  126.7012  136.7605  160.2773 H   0  0  0  0  0  0  0  0  0  0  0  0
  125.0774  136.3056  162.0101 H   0  0  0  0  0  0  0  0  0  0  0  0
  125.4258  135.3438  163.3430 H   0  0  0  0  0  0  0  0  0  0  0  0
  127.5943  134.3287  163.6804 H   0  0  0  0  0  0  0  0  0  0  0  0
  129.8755  133.9799  162.8252 H   0  0  0  0  0  0  0  0  0  0  0  0
  133.6096  134.8010  161.1053 H   0  0  0  0  0  0  0  0  0  0  0  0
  135.0865  136.5678  161.9767 H   0  0  0  0  0  0  0  0  0  0  0  0
  131.7858  139.2677  162.0946 H   0  0  0  0  0  0  0  0  0  0  0  0
  130.3114  137.5029  161.2145 H   0  0  0  0  0  0  0  0  0  0  0  0
  131.2956  129.9427  156.3818 H   0  0  0  0  0  0  0  0  0  0  0  0
  131.6353  128.7906  154.2362 H   0  0  0  0  0  0  0  0  0  0  0  0
  1  2  1  0
  1 32  1  0
  1 33  1  0
  2 31  2  0
  2  3  1  0
  3  4  2  0
  3 34  1  0
  4  5  1  0
  4 35  1  0
  5  6  1  0
  5 30  2  0
  6 28  1  0
  6  7  2  0
  7  8  1  0
  7 36  1  0
  8  9  1  0
  8 10  1  0
 10 11  1  0
 10 28  2  0
 11 12  1  0
 11 37  1  0
 12 13  1  6
 12 14  1  0
 12 21  1  0
 14 20  1  0
 14 15  2  0
 15 16  1  0
 15 38  1  0
 16 17  2  0
 16 39  1  0
 17 18  1  0
 17 19  1  0
 18 40  1  0
 18 41  1  0
 19 20  2  0
 19 42  1  0
 20 43  1  0
 21 27  1  0
 21 22  2  0
 22 23  1  0
 22 44  1  0
 23 24  2  0
 23 45  1  0
 24 25  1  0
 24 26  1  0
 26 27  2  0
 26 46  1  0
 27 47  1  0
 28 29  1  0
 30 31  1  0
 30 48  1  0
 31 49  1  0
M  CHG  1  28   1
M  END
>  <DOCK_score>  (1) 
-56.913364

>  <SMILES>  (1) 
Nc1ccc(-c2c[nH]c(N[C@H](c3ccc(N)cc3)c3ccc(I)cc3)[nH+]2)cc1

$$$$
