CCc1ccc(CCNc2cc(O)cc(Nc3[nH]cc(-c4ccc(N)cc4)[nH+]3)c2)cc1
     RDKit          3D

 59 62  0  0  1  0  0  0  0  0999 V2000
  127.6328  135.0715  168.3353 C   0  0  0  0  0  0  0  0  0  0  0  0
  128.0779  136.4747  168.7522 C   0  0  0  0  0  0  0  0  0  0  0  0
  128.6281  137.2040  167.5536 C   0  0  0  0  0  0  0  0  0  0  0  0
  127.7865  137.9585  166.7575 C   0  0  0  0  0  0  0  0  0  0  0  0
  128.2911  138.6272  165.6578 C   0  0  0  0  0  0  0  0  0  0  0  0
  129.6369  138.5412  165.3542 C   0  0  0  0  0  0  0  0  0  0  0  0
  130.1868  139.2698  164.1551 C   0  0  0  0  0  0  0  0  0  0  0  0
  130.1075  138.3619  162.9261 C   0  0  0  0  0  0  0  0  0  0  0  0
  128.7105  137.9973  162.6776 N   0  0  0  0  0  0  0  0  0  0  0  0
  128.3857  137.1686  161.6013 C   0  0  0  0  0  0  0  0  0  0  0  0
  127.0618  136.8187  161.3688 C   0  0  0  0  0  0  0  0  0  0  0  0
  126.7391  135.9963  160.3005 C   0  0  0  0  0  0  0  0  0  0  0  0
  125.4435  135.6543  160.0738 O   0  0  0  0  0  0  0  0  0  0  0  0
  127.7376  135.5226  159.4628 C   0  0  0  0  0  0  0  0  0  0  0  0
  129.0616  135.8714  159.6938 C   0  0  0  0  0  0  0  0  0  0  0  0
  130.0678  135.3934  158.8497 N   0  0  0  0  0  0  0  0  0  0  0  0
  129.9202  134.1680  158.2205 C   0  0  0  0  0  0  0  0  0  0  0  0
  129.2222  133.1058  158.7073 N   0  0  0  0  0  0  0  0  0  0  0  0
  128.7457  133.0696  159.5515 H   0  0  0  0  0  0  0  0  0  0  0  0
  129.3223  132.0923  157.7847 C   0  0  0  0  0  0  0  0  0  0  0  0
  130.0777  132.5644  156.7620 C   0  0  0  0  0  0  0  0  0  0  0  0
  130.4523  131.8175  155.5362 C   0  0  0  0  0  0  0  0  0  0  0  0
  130.0660  132.2925  154.2839 C   0  0  0  0  0  0  0  0  0  0  0  0
  130.4207  131.5999  153.1454 C   0  0  0  0  0  0  0  0  0  0  0  0
  131.1519  130.4224  153.2467 C   0  0  0  0  0  0  0  0  0  0  0  0
  131.5047  129.7189  152.0924 N   0  0  0  0  0  0  0  0  0  0  0  0
  131.5333  129.9439  154.4947 C   0  0  0  0  0  0  0  0  0  0  0  0
  131.1862  130.6365  155.6353 C   0  0  0  0  0  0  0  0  0  0  0  0
  130.4297  133.8402  157.0580 N   0  0  0  0  0  0  0  0  0  0  0  0
  130.9723  134.4180  156.4988 H   0  0  0  0  0  0  0  0  0  0  0  0
  129.3862  136.6904  160.7668 C   0  0  0  0  0  0  0  0  0  0  0  0
  130.4773  137.7825  166.1472 C   0  0  0  0  0  0  0  0  0  0  0  0
  129.9738  137.1181  167.2499 C   0  0  0  0  0  0  0  0  0  0  0  0
  126.8602  135.1477  167.5702 H   0  0  0  0  0  0  0  0  0  0  0  0
  128.4862  134.5231  167.9365 H   0  0  0  0  0  0  0  0  0  0  0  0
  127.2350  134.5440  169.2023 H   0  0  0  0  0  0  0  0  0  0  0  0
  128.8505  136.3985  169.5173 H   0  0  0  0  0  0  0  0  0  0  0  0
  127.2244  137.0231  169.1510 H   0  0  0  0  0  0  0  0  0  0  0  0
  126.7350  138.0253  166.9945 H   0  0  0  0  0  0  0  0  0  0  0  0
  127.6337  139.2163  165.0357 H   0  0  0  0  0  0  0  0  0  0  0  0
  131.2263  139.5409  164.3398 H   0  0  0  0  0  0  0  0  0  0  0  0
  129.6017  140.1722  163.9785 H   0  0  0  0  0  0  0  0  0  0  0  0
  130.6926  137.4593  163.1028 H   0  0  0  0  0  0  0  0  0  0  0  0
  130.5052  138.8887  162.0588 H   0  0  0  0  0  0  0  0  0  0  0  0
  128.0110  138.3313  163.2607 H   0  0  0  0  0  0  0  0  0  0  0  0
  126.2834  137.1877  162.0202 H   0  0  0  0  0  0  0  0  0  0  0  0
  124.8201  136.0321  160.7090 H   0  0  0  0  0  0  0  0  0  0  0  0
  127.4853  134.8825  158.6303 H   0  0  0  0  0  0  0  0  0  0  0  0
  130.8696  135.9197  158.7044 H   0  0  0  0  0  0  0  0  0  0  0  0
  128.8833  131.1083  157.8595 H   0  0  0  0  0  0  0  0  0  0  0  0
  129.4933  133.2047  154.2050 H   0  0  0  0  0  0  0  0  0  0  0  0
  130.1257  131.9702  152.1748 H   0  0  0  0  0  0  0  0  0  0  0  0
  132.0154  128.8973  152.1622 H   0  0  0  0  0  0  0  0  0  0  0  0
  131.2391  130.0524  151.2211 H   0  0  0  0  0  0  0  0  0  0  0  0
  132.1015  129.0287  154.5710 H   0  0  0  0  0  0  0  0  0  0  0  0
  131.4830  130.2644  156.6048 H   0  0  0  0  0  0  0  0  0  0  0  0
  130.4164  136.9586  160.9496 H   0  0  0  0  0  0  0  0  0  0  0  0
  131.5281  137.7119  165.9074 H   0  0  0  0  0  0  0  0  0  0  0  0
  130.6311  136.5284  167.8716 H   0  0  0  0  0  0  0  0  0  0  0  0
  1  2  1  0
  1 34  1  0
  1 35  1  0
  1 36  1  0
  2  3  1  0
  2 37  1  0
  2 38  1  0
  3 33  2  0
  3  4  1  0
  4  5  2  0
  4 39  1  0
  5  6  1  0
  5 40  1  0
  6  7  1  0
  6 32  2  0
  7  8  1  0
  7 41  1  0
  7 42  1  0
  8  9  1  0
  8 43  1  0
  8 44  1  0
  9 10  1  0
  9 45  1  0
 10 31  1  0
 10 11  2  0
 11 12  1  0
 11 46  1  0
 12 13  1  0
 12 14  2  0
 13 47  1  0
 14 15  1  0
 14 48  1  0
 15 16  1  0
 15 31  2  0
 16 49  1  0
 17 16  1  0
 17 29  2  0
 17 18  1  0
 18 19  1  0
 18 20  1  0
 20 21  2  0
 20 50  1  0
 21 22  1  0
 21 29  1  0
 22 28  1  0
 22 23  2  0
 23 24  1  0
 23 51  1  0
 24 25  2  0
 24 52  1  0
 25 26  1  0
 25 27  1  0
 26 53  1  0
 26 54  1  0
 27 28  2  0
 27 55  1  0
 28 56  1  0
 29 30  1  0
 31 57  1  0
 32 33  1  0
 32 58  1  0
 33 59  1  0
M  CHG  1  29   1
M  END
>  <DOCK_score>  (1) 
-54.587433

>  <SMILES>  (1) 
CCc1ccc(CCNc2cc(O)cc(Nc3[nH]cc(-c4ccc(N)cc4)[nH+]3)c2)cc1

$$$$
