O=C1CC[C@H]([NH+]=C(NCc2ccccc2F)NC2CCC2)CN1
     RDKit          3D

 47 49  0  0  1  0  0  0  0  0999 V2000
  123.6647  133.6700  161.5082 O   0  0  0  0  0  0  0  0  0  0  0  0
  124.8400  133.8936  161.3094 C   0  0  0  0  0  0  0  0  0  0  0  0
  125.7088  132.7631  160.8379 C   0  0  0  0  0  0  0  0  0  0  0  0
  127.1826  133.1100  161.0629 C   0  0  0  0  0  0  0  0  0  0  0  0
  127.4400  134.5156  160.5063 C   0  0  2  0  0  0  0  0  0  0  0  0
  127.0865  134.5716  159.4767 H   0  0  0  0  0  0  0  0  0  0  0  0
  128.8753  134.8061  160.5496 N   0  0  0  0  0  0  0  0  0  0  0  0
  129.2621  135.2238  161.3349 H   0  0  0  0  0  0  0  0  0  0  0  0
  129.6325  134.5033  159.5329 C   0  0  0  0  0  0  0  0  0  0  0  0
  129.0842  133.9113  158.4197 N   0  0  0  0  0  0  0  0  0  0  0  0
  129.6739  134.1466  157.0994 C   0  0  0  0  0  0  0  0  0  0  0  0
  130.1201  132.8345  156.5074 C   0  0  0  0  0  0  0  0  0  0  0  0
  129.8316  132.5373  155.1887 C   0  0  0  0  0  0  0  0  0  0  0  0
  130.2457  131.3364  154.6439 C   0  0  0  0  0  0  0  0  0  0  0  0
  130.9388  130.4261  155.4205 C   0  0  0  0  0  0  0  0  0  0  0  0
  131.2236  130.7189  156.7404 C   0  0  0  0  0  0  0  0  0  0  0  0
  130.8142  131.9240  157.2857 C   0  0  0  0  0  0  0  0  0  0  0  0
  131.0916  132.2109  158.5765 F   0  0  0  0  0  0  0  0  0  0  0  0
  130.9794  134.7760  159.5735 N   0  0  0  0  0  0  0  0  0  0  0  0
  131.5636  135.4069  160.7596 C   0  0  0  0  0  0  0  0  0  0  0  0
  133.0363  135.8115  160.5798 C   0  0  0  0  0  0  0  0  0  0  0  0
  133.4047  134.4066  161.0852 C   0  0  0  0  0  0  0  0  0  0  0  0
  132.0504  134.4024  161.8173 C   0  0  0  0  0  0  0  0  0  0  0  0
  126.6852  135.5290  161.3674 C   0  0  0  0  0  0  0  0  0  0  0  0
  125.2916  135.1304  161.5210 N   0  0  0  0  0  0  0  0  0  0  0  0
  125.5352  132.5918  159.7755 H   0  0  0  0  0  0  0  0  0  0  0  0
  125.4602  131.8602  161.3957 H   0  0  0  0  0  0  0  0  0  0  0  0
  127.8129  132.3884  160.5432 H   0  0  0  0  0  0  0  0  0  0  0  0
  127.4059  133.0912  162.1295 H   0  0  0  0  0  0  0  0  0  0  0  0
  128.3070  133.3377  158.5085 H   0  0  0  0  0  0  0  0  0  0  0  0
  128.9315  134.6059  156.4466 H   0  0  0  0  0  0  0  0  0  0  0  0
  130.5320  134.8113  157.1979 H   0  0  0  0  0  0  0  0  0  0  0  0
  129.2863  133.2455  154.5826 H   0  0  0  0  0  0  0  0  0  0  0  0
  130.0238  131.1069  153.6122 H   0  0  0  0  0  0  0  0  0  0  0  0
  131.2581  129.4862  154.9948 H   0  0  0  0  0  0  0  0  0  0  0  0
  131.7655  130.0078  157.3464 H   0  0  0  0  0  0  0  0  0  0  0  0
  131.5428  134.5506  158.8167 H   0  0  0  0  0  0  0  0  0  0  0  0
  130.9390  136.2017  161.1671 H   0  0  0  0  0  0  0  0  0  0  0  0
  133.3166  135.9896  159.5416 H   0  0  0  0  0  0  0  0  0  0  0  0
  133.3536  136.6127  161.2473 H   0  0  0  0  0  0  0  0  0  0  0  0
  133.4749  133.6619  160.2923 H   0  0  0  0  0  0  0  0  0  0  0  0
  134.2644  134.3952  161.7552 H   0  0  0  0  0  0  0  0  0  0  0  0
  132.0985  134.8174  162.8241 H   0  0  0  0  0  0  0  0  0  0  0  0
  131.5339  133.4433  161.7791 H   0  0  0  0  0  0  0  0  0  0  0  0
  127.1537  135.5868  162.3499 H   0  0  0  0  0  0  0  0  0  0  0  0
  126.7294  136.5092  160.8925 H   0  0  0  0  0  0  0  0  0  0  0  0
  124.6527  135.8073  161.7939 H   0  0  0  0  0  0  0  0  0  0  0  0
  1  2  2  0
  2 25  1  0
  2  3  1  0
  3  4  1  0
  3 26  1  0
  3 27  1  0
  4  5  1  0
  4 28  1  0
  4 29  1  0
  5  6  1  6
  5  7  1  0
  5 24  1  0
  7  8  1  0
  9  7  2  0
  9 10  1  0
  9 19  1  0
 10 11  1  0
 10 30  1  0
 11 12  1  0
 11 31  1  0
 11 32  1  0
 12 17  1  0
 12 13  2  0
 13 14  1  0
 13 33  1  0
 14 15  2  0
 14 34  1  0
 15 16  1  0
 15 35  1  0
 16 17  2  0
 16 36  1  0
 17 18  1  0
 19 20  1  0
 19 37  1  0
 20 23  1  0
 20 21  1  0
 20 38  1  0
 21 22  1  0
 21 39  1  0
 21 40  1  0
 22 23  1  0
 22 41  1  0
 22 42  1  0
 23 43  1  0
 23 44  1  0
 24 25  1  0
 24 45  1  0
 24 46  1  0
 25 47  1  0
M  CHG  1   7   1
M  END
>  <DOCK_score>  (1) 
-49.083267

>  <SMILES>  (1) 
O=C1CC[C@H]([NH+]=C(NCc2ccccc2F)NC2CCC2)CN1

$$$$
