c1ccc([C@H](NC2=[NH+]CCN2)c2cccnc2)cc1
     RDKit          3D

 36 38  0  0  1  0  0  0  0  0999 V2000
  130.7823  139.7991  160.4783 C   0  0  0  0  0  0  0  0  0  0  0  0
  130.5753  139.0636  161.6304 C   0  0  0  0  0  0  0  0  0  0  0  0
  130.1812  137.7414  161.5448 C   0  0  0  0  0  0  0  0  0  0  0  0
  129.9934  137.1549  160.3072 C   0  0  0  0  0  0  0  0  0  0  0  0
  129.5637  135.7133  160.2138 C   0  0  2  0  0  0  0  0  0  0  0  0
  129.9417  135.1650  161.0767 H   0  0  0  0  0  0  0  0  0  0  0  0
  130.1011  135.1222  158.9859 N   0  0  0  0  0  0  0  0  0  0  0  0
  129.8401  133.8134  158.6859 C   0  0  0  0  0  0  0  0  0  0  0  0
  129.1143  133.0318  159.4686 N   0  0  0  0  0  0  0  0  0  0  0  0
  128.7074  133.2992  160.3074 H   0  0  0  0  0  0  0  0  0  0  0  0
  129.0194  131.6938  158.8639 C   0  0  0  0  0  0  0  0  0  0  0  0
  129.8423  131.8271  157.5666 C   0  0  0  0  0  0  0  0  0  0  0  0
  130.2979  133.2258  157.5925 N   0  0  0  0  0  0  0  0  0  0  0  0
  128.0588  135.6383  160.1908 C   0  0  0  0  0  0  0  0  0  0  0  0
  127.3722  135.6761  158.9865 C   0  0  0  0  0  0  0  0  0  0  0  0
  125.9883  135.5996  159.0132 C   0  0  0  0  0  0  0  0  0  0  0  0
  125.3428  135.4987  160.2313 C   0  0  0  0  0  0  0  0  0  0  0  0
  126.0280  135.4704  161.3575 N   0  0  0  0  0  0  0  0  0  0  0  0
  127.3452  135.5367  161.3696 C   0  0  0  0  0  0  0  0  0  0  0  0
  130.2050  137.8889  159.1552 C   0  0  0  0  0  0  0  0  0  0  0  0
  130.5948  139.2125  159.2408 C   0  0  0  0  0  0  0  0  0  0  0  0
  131.0901  140.8321  160.5453 H   0  0  0  0  0  0  0  0  0  0  0  0
  130.7217  139.5218  162.5973 H   0  0  0  0  0  0  0  0  0  0  0  0
  130.0198  137.1666  162.4449 H   0  0  0  0  0  0  0  0  0  0  0  0
  130.6419  135.6589  158.3855 H   0  0  0  0  0  0  0  0  0  0  0  0
  127.9829  131.4438  158.6372 H   0  0  0  0  0  0  0  0  0  0  0  0
  129.4588  130.9441  159.5220 H   0  0  0  0  0  0  0  0  0  0  0  0
  129.2156  131.6435  156.6939 H   0  0  0  0  0  0  0  0  0  0  0  0
  130.6931  131.1459  157.5770 H   0  0  0  0  0  0  0  0  0  0  0  0
  130.8474  133.6501  156.9150 H   0  0  0  0  0  0  0  0  0  0  0  0
  127.9034  135.7594  158.0498 H   0  0  0  0  0  0  0  0  0  0  0  0
  125.4215  135.6226  158.0941 H   0  0  0  0  0  0  0  0  0  0  0  0
  124.2647  135.4420  160.2610 H   0  0  0  0  0  0  0  0  0  0  0  0
  127.8722  135.5107  162.3120 H   0  0  0  0  0  0  0  0  0  0  0  0
  130.0626  137.4294  158.1881 H   0  0  0  0  0  0  0  0  0  0  0  0
  130.7562  139.7871  158.3408 H   0  0  0  0  0  0  0  0  0  0  0  0
  1 21  2  0
  1  2  1  0
  1 22  1  0
  2  3  2  0
  2 23  1  0
  3  4  1  0
  3 24  1  0
  4  5  1  0
  4 20  2  0
  5  6  1  1
  5  7  1  0
  5 14  1  0
  7  8  1  0
  7 25  1  0
  8 13  2  0
  8  9  1  0
  9 10  1  0
  9 11  1  0
 11 12  1  0
 11 26  1  0
 11 27  1  0
 12 13  1  0
 12 28  1  0
 12 29  1  0
 13 30  1  0
 14 19  1  0
 14 15  2  0
 15 16  1  0
 15 31  1  0
 16 17  2  0
 16 32  1  0
 17 18  1  0
 17 33  1  0
 18 19  2  0
 19 34  1  0
 20 21  1  0
 20 35  1  0
 21 36  1  0
M  CHG  1  13   1
M  END
>  <DOCK_score>  (1) 
-43.693764

>  <SMILES>  (1) 
c1ccc([C@H](NC2=[NH+]CCN2)c2cccnc2)cc1

$$$$
