c1ccc(-c2ccc(Nc3ccc(NC4=[NH+]CCN4)cc3)cc2)cc1
     RDKit          3D

 46 49  0  0  0  0  0  0  0  0999 V2000
  127.8205  139.0783  170.2561 C   0  0  0  0  0  0  0  0  0  0  0  0
  127.5628  137.7456  169.9900 C   0  0  0  0  0  0  0  0  0  0  0  0
  127.2685  137.3404  168.7040 C   0  0  0  0  0  0  0  0  0  0  0  0
  127.2421  138.2752  167.6705 C   0  0  0  0  0  0  0  0  0  0  0  0
  126.9325  137.8448  166.2851 C   0  0  0  0  0  0  0  0  0  0  0  0
  127.2750  136.5620  165.8598 C   0  0  0  0  0  0  0  0  0  0  0  0
  126.9817  136.1621  164.5737 C   0  0  0  0  0  0  0  0  0  0  0  0
  126.3547  137.0408  163.6973 C   0  0  0  0  0  0  0  0  0  0  0  0
  126.0635  136.6359  162.3938 N   0  0  0  0  0  0  0  0  0  0  0  0
  127.0965  136.2403  161.5367 C   0  0  0  0  0  0  0  0  0  0  0  0
  126.8557  135.2933  160.5495 C   0  0  0  0  0  0  0  0  0  0  0  0
  127.8736  134.9075  159.7003 C   0  0  0  0  0  0  0  0  0  0  0  0
  129.1408  135.4578  159.8405 C   0  0  0  0  0  0  0  0  0  0  0  0
  130.1754  135.0620  158.9815 N   0  0  0  0  0  0  0  0  0  0  0  0
  130.1828  133.7976  158.4558 C   0  0  0  0  0  0  0  0  0  0  0  0
  129.6668  132.7569  159.0894 N   0  0  0  0  0  0  0  0  0  0  0  0
  129.2447  132.7836  159.9623 H   0  0  0  0  0  0  0  0  0  0  0  0
  129.8310  131.5535  158.2590 C   0  0  0  0  0  0  0  0  0  0  0  0
  130.5579  132.0794  157.0048 C   0  0  0  0  0  0  0  0  0  0  0  0
  130.7115  133.5173  157.2757 N   0  0  0  0  0  0  0  0  0  0  0  0
  129.3832  136.4003  160.8308 C   0  0  0  0  0  0  0  0  0  0  0  0
  128.3642  136.7906  161.6766 C   0  0  0  0  0  0  0  0  0  0  0  0
  126.0172  138.3225  164.1179 C   0  0  0  0  0  0  0  0  0  0  0  0
  126.3040  138.7244  165.4048 C   0  0  0  0  0  0  0  0  0  0  0  0
  127.5082  139.6157  167.9436 C   0  0  0  0  0  0  0  0  0  0  0  0
  127.7961  140.0105  169.2342 C   0  0  0  0  0  0  0  0  0  0  0  0
  128.0459  139.3917  171.2648 H   0  0  0  0  0  0  0  0  0  0  0  0
  127.5875  137.0215  170.7908 H   0  0  0  0  0  0  0  0  0  0  0  0
  127.0635  136.3003  168.4979 H   0  0  0  0  0  0  0  0  0  0  0  0
  127.7663  135.8808  166.5387 H   0  0  0  0  0  0  0  0  0  0  0  0
  127.2431  135.1671  164.2450 H   0  0  0  0  0  0  0  0  0  0  0  0
  125.1451  136.6286  162.0820 H   0  0  0  0  0  0  0  0  0  0  0  0
  125.8715  134.8617  160.4438 H   0  0  0  0  0  0  0  0  0  0  0  0
  127.6854  134.1744  158.9300 H   0  0  0  0  0  0  0  0  0  0  0  0
  130.8859  135.6837  158.7597 H   0  0  0  0  0  0  0  0  0  0  0  0
  128.8619  131.1316  157.9926 H   0  0  0  0  0  0  0  0  0  0  0  0
  130.4434  130.8149  158.7763 H   0  0  0  0  0  0  0  0  0  0  0  0
  129.9507  131.9193  156.1137 H   0  0  0  0  0  0  0  0  0  0  0  0
  131.5321  131.6031  156.8947 H   0  0  0  0  0  0  0  0  0  0  0  0
  131.1337  134.1585  156.6828 H   0  0  0  0  0  0  0  0  0  0  0  0
  130.3688  136.8284  160.9393 H   0  0  0  0  0  0  0  0  0  0  0  0
  128.5526  137.5240  162.4467 H   0  0  0  0  0  0  0  0  0  0  0  0
  125.5303  139.0036  163.4357 H   0  0  0  0  0  0  0  0  0  0  0  0
  126.0423  139.7201  165.7309 H   0  0  0  0  0  0  0  0  0  0  0  0
  127.4895  140.3442  167.1465 H   0  0  0  0  0  0  0  0  0  0  0  0
  128.0025  141.0489  169.4469 H   0  0  0  0  0  0  0  0  0  0  0  0
  1 26  2  0
  1  2  1  0
  1 27  1  0
  2  3  2  0
  2 28  1  0
  3  4  1  0
  3 29  1  0
  4  5  1  0
  4 25  2  0
  5 24  1  0
  5  6  2  0
  6  7  1  0
  6 30  1  0
  7  8  2  0
  7 31  1  0
  8  9  1  0
  8 23  1  0
  9 10  1  0
  9 32  1  0
 10 22  1  0
 10 11  2  0
 11 12  1  0
 11 33  1  0
 12 13  2  0
 12 34  1  0
 13 14  1  0
 13 21  1  0
 14 15  1  0
 14 35  1  0
 15 20  2  0
 15 16  1  0
 16 17  1  0
 16 18  1  0
 18 19  1  0
 18 36  1  0
 18 37  1  0
 19 20  1  0
 19 38  1  0
 19 39  1  0
 20 40  1  0
 21 22  2  0
 21 41  1  0
 22 42  1  0
 23 24  2  0
 23 43  1  0
 24 44  1  0
 25 26  1  0
 25 45  1  0
 26 46  1  0
M  CHG  1  20   1
M  END
>  <DOCK_score>  (1) 
-42.562538

>  <SMILES>  (1) 
c1ccc(-c2ccc(Nc3ccc(NC4=[NH+]CCN4)cc3)cc2)cc1

$$$$
