Fc1ccc2c(c1)C[C@@H]([NH2+]Cc1c[nH]nc1-c1ccc(NCC3=CCOCC3)o1)C2
     RDKit          3D

 56 60  0  0  1  0  0  0  0  0999 V2000
  136.7910  142.0619  162.3273 F   0  0  0  0  0  0  0  0  0  0  0  0
  136.0162  140.9552  162.3388 C   0  0  0  0  0  0  0  0  0  0  0  0
  135.9137  140.1921  163.4898 C   0  0  0  0  0  0  0  0  0  0  0  0
  135.1213  139.0616  163.4980 C   0  0  0  0  0  0  0  0  0  0  0  0
  134.4283  138.6870  162.3588 C   0  0  0  0  0  0  0  0  0  0  0  0
  134.5299  139.4480  161.2092 C   0  0  0  0  0  0  0  0  0  0  0  0
  135.3241  140.5822  161.2007 C   0  0  0  0  0  0  0  0  0  0  0  0
  133.6857  138.8340  160.1128 C   0  0  0  0  0  0  0  0  0  0  0  0
  132.7199  137.8726  160.8372 C   0  0  1  0  0  0  0  0  0  0  0  0
  131.7854  138.3740  161.0889 H   0  0  0  0  0  0  0  0  0  0  0  0
  132.4653  136.6766  160.0230 N   0  0  0  0  0  0  0  0  0  0  0  0
  133.3352  136.1951  159.8514 H   0  0  0  0  0  0  0  0  0  0  0  0
  132.0529  136.9499  159.1436 H   0  0  0  0  0  0  0  0  0  0  0  0
  131.5444  135.7838  160.7391 C   0  0  0  0  0  0  0  0  0  0  0  0
  131.2832  134.5568  159.9039 C   0  0  0  0  0  0  0  0  0  0  0  0
  132.2108  133.8347  159.2398 C   0  0  0  0  0  0  0  0  0  0  0  0
  131.5802  132.8161  158.6160 N   0  0  0  0  0  0  0  0  0  0  0  0
  132.0019  132.1372  158.0664 H   0  0  0  0  0  0  0  0  0  0  0  0
  130.2110  132.9132  158.8949 N   0  0  0  0  0  0  0  0  0  0  0  0
  130.0249  133.9621  159.6719 C   0  0  0  0  0  0  0  0  0  0  0  0
  128.7292  134.4314  160.2046 C   0  0  0  0  0  0  0  0  0  0  0  0
  127.5188  133.8583  159.9733 C   0  0  0  0  0  0  0  0  0  0  0  0
  126.5645  134.6244  160.6713 C   0  0  0  0  0  0  0  0  0  0  0  0
  127.2367  135.6294  161.2862 C   0  0  0  0  0  0  0  0  0  0  0  0
  126.6690  136.6201  162.0789 N   0  0  0  0  0  0  0  0  0  0  0  0
  127.5175  137.6495  162.6844 C   0  0  0  0  0  0  0  0  0  0  0  0
  127.9825  137.1836  164.0401 C   0  0  0  0  0  0  0  0  0  0  0  0
  129.0939  136.5147  164.1241 C   0  0  0  0  0  0  0  0  0  0  0  0
  129.6417  136.0037  165.4262 C   0  0  0  0  0  0  0  0  0  0  0  0
  128.9850  136.6436  166.5224 O   0  0  0  0  0  0  0  0  0  0  0  0
  127.5563  136.6119  166.4156 C   0  0  0  0  0  0  0  0  0  0  0  0
  127.1399  137.5050  165.2435 C   0  0  0  0  0  0  0  0  0  0  0  0
  128.5439  135.5062  160.9997 O   0  0  0  0  0  0  0  0  0  0  0  0
  133.5088  137.5098  162.1133 C   0  0  0  0  0  0  0  0  0  0  0  0
  136.4527  140.4812  164.3800 H   0  0  0  0  0  0  0  0  0  0  0  0
  135.0414  138.4671  164.3961 H   0  0  0  0  0  0  0  0  0  0  0  0
  135.4037  141.1769  160.3029 H   0  0  0  0  0  0  0  0  0  0  0  0
  134.3153  138.2827  159.4145 H   0  0  0  0  0  0  0  0  0  0  0  0
  133.1259  139.6083  159.5882 H   0  0  0  0  0  0  0  0  0  0  0  0
  130.6045  136.3038  160.9245 H   0  0  0  0  0  0  0  0  0  0  0  0
  131.9897  135.4885  161.6891 H   0  0  0  0  0  0  0  0  0  0  0  0
  133.2717  134.0352  159.2136 H   0  0  0  0  0  0  0  0  0  0  0  0
  127.3257  132.9826  159.3714 H   0  0  0  0  0  0  0  0  0  0  0  0
  125.4997  134.4474  160.7072 H   0  0  0  0  0  0  0  0  0  0  0  0
  125.7111  136.6299  162.2311 H   0  0  0  0  0  0  0  0  0  0  0  0
  128.3823  137.8293  162.0459 H   0  0  0  0  0  0  0  0  0  0  0  0
  126.9477  138.5723  162.7930 H   0  0  0  0  0  0  0  0  0  0  0  0
  129.6498  136.3213  163.2185 H   0  0  0  0  0  0  0  0  0  0  0  0
  130.7112  136.2082  165.4764 H   0  0  0  0  0  0  0  0  0  0  0  0
  129.4763  134.9280  165.4840 H   0  0  0  0  0  0  0  0  0  0  0  0
  127.1110  136.9851  167.3379 H   0  0  0  0  0  0  0  0  0  0  0  0
  127.2243  135.5898  166.2342 H   0  0  0  0  0  0  0  0  0  0  0  0
  127.2807  138.5510  165.5162 H   0  0  0  0  0  0  0  0  0  0  0  0
  126.0899  137.3298  165.0088 H   0  0  0  0  0  0  0  0  0  0  0  0
  132.8281  137.3798  162.9547 H   0  0  0  0  0  0  0  0  0  0  0  0
  134.0907  136.6021  161.9529 H   0  0  0  0  0  0  0  0  0  0  0  0
  1  2  1  0
  2  7  2  0
  2  3  1  0
  3  4  2  0
  3 35  1  0
  4  5  1  0
  4 36  1  0
  5 34  1  0
  5  6  2  0
  6  7  1  0
  6  8  1  0
  7 37  1  0
  8  9  1  0
  8 38  1  0
  8 39  1  0
  9 10  1  1
  9 11  1  0
  9 34  1  0
 11 12  1  0
 11 13  1  0
 11 14  1  0
 14 15  1  0
 14 40  1  0
 14 41  1  0
 15 20  1  0
 15 16  2  0
 16 17  1  0
 16 42  1  0
 17 18  1  0
 17 19  1  0
 19 20  2  0
 20 21  1  0
 21 33  1  0
 21 22  2  0
 22 23  1  0
 22 43  1  0
 23 24  2  0
 23 44  1  0
 24 25  1  0
 24 33  1  0
 25 26  1  0
 25 45  1  0
 26 27  1  0
 26 46  1  0
 26 47  1  0
 27 32  1  0
 27 28  2  0
 28 29  1  0
 28 48  1  0
 29 30  1  0
 29 49  1  0
 29 50  1  0
 30 31  1  0
 31 32  1  0
 31 51  1  0
 31 52  1  0
 32 53  1  0
 32 54  1  0
 34 55  1  0
 34 56  1  0
M  CHG  1  11   1
M  END
>  <DOCK_score>  (1) 
-43.81609

>  <SMILES>  (1) 
Fc1ccc2c(c1)C[C@@H]([NH2+]Cc1c[nH]nc1-c1ccc(NCC3=CCOCC3)o1)C2

$$$$
