C[N@H+]1CCNC1=CNC1c2cc(O)ccc2-c2ccc(O)cc21
     RDKit          3D

 43 46  0  0  0  0  0  0  0  0999 V2000
  130.7316  139.2396  158.5767 C   0  0  0  0  0  0  0  0  0  0  0  0
  131.3387  138.2168  159.4388 N   0  0  1  0  0  0  0  0  0  0  0  0
  132.0359  137.7035  158.9207 H   0  0  0  0  0  0  0  0  0  0  0  0
  131.9636  138.8620  160.6123 C   0  0  0  0  0  0  0  0  0  0  0  0
  131.5176  137.9727  161.7943 C   0  0  0  0  0  0  0  0  0  0  0  0
  130.2617  137.3759  161.2974 N   0  0  0  0  0  0  0  0  0  0  0  0
  130.3517  137.3404  159.8983 C   0  0  0  0  0  0  0  0  0  0  0  0
  129.6023  136.5780  159.1171 C   0  0  0  0  0  0  0  0  0  0  0  0
  128.6377  135.7311  159.6809 N   0  0  0  0  0  0  0  0  0  0  0  0
  127.8085  134.8876  158.8165 C   0  0  0  0  0  0  0  0  0  0  0  0
  126.6045  134.3890  159.5773 C   0  0  0  0  0  0  0  0  0  0  0  0
  125.5600  135.0476  160.1891 C   0  0  0  0  0  0  0  0  0  0  0  0
  124.5644  134.3242  160.8320 C   0  0  0  0  0  0  0  0  0  0  0  0
  123.5341  134.9733  161.4350 O   0  0  0  0  0  0  0  0  0  0  0  0
  124.6217  132.9371  160.8581 C   0  0  0  0  0  0  0  0  0  0  0  0
  125.6645  132.2747  160.2475 C   0  0  0  0  0  0  0  0  0  0  0  0
  126.6685  132.9981  159.5995 C   0  0  0  0  0  0  0  0  0  0  0  0
  127.8825  132.5479  158.8745 C   0  0  0  0  0  0  0  0  0  0  0  0
  128.3814  131.2673  158.6254 C   0  0  0  0  0  0  0  0  0  0  0  0
  129.5516  131.1090  157.9149 C   0  0  0  0  0  0  0  0  0  0  0  0
  130.2389  132.2201  157.4447 C   0  0  0  0  0  0  0  0  0  0  0  0
  131.3925  132.0596  156.7448 O   0  0  0  0  0  0  0  0  0  0  0  0
  129.7465  133.4950  157.6890 C   0  0  0  0  0  0  0  0  0  0  0  0
  128.5770  133.6575  158.3994 C   0  0  0  0  0  0  0  0  0  0  0  0
  129.9695  139.7814  159.1369 H   0  0  0  0  0  0  0  0  0  0  0  0
  131.5006  139.9360  158.2422 H   0  0  0  0  0  0  0  0  0  0  0  0
  130.2742  138.7603  157.7110 H   0  0  0  0  0  0  0  0  0  0  0  0
  133.0496  138.8593  160.5187 H   0  0  0  0  0  0  0  0  0  0  0  0
  131.5907  139.8788  160.7352 H   0  0  0  0  0  0  0  0  0  0  0  0
  131.3335  138.5758  162.6834 H   0  0  0  0  0  0  0  0  0  0  0  0
  132.2588  137.1997  161.9972 H   0  0  0  0  0  0  0  0  0  0  0  0
  129.5166  137.0669  161.8361 H   0  0  0  0  0  0  0  0  0  0  0  0
  129.7340  136.6086  158.0456 H   0  0  0  0  0  0  0  0  0  0  0  0
  128.5192  135.7039  160.6433 H   0  0  0  0  0  0  0  0  0  0  0  0
  127.4922  135.4486  157.9371 H   0  0  0  0  0  0  0  0  0  0  0  0
  125.5156  136.1265  160.1683 H   0  0  0  0  0  0  0  0  0  0  0  0
  123.5804  135.9365  161.3636 H   0  0  0  0  0  0  0  0  0  0  0  0
  123.8464  132.3756  161.3582 H   0  0  0  0  0  0  0  0  0  0  0  0
  125.7054  131.1958  160.2697 H   0  0  0  0  0  0  0  0  0  0  0  0
  127.8497  130.4006  158.9896 H   0  0  0  0  0  0  0  0  0  0  0  0
  129.9354  130.1179  157.7236 H   0  0  0  0  0  0  0  0  0  0  0  0
  131.7983  132.8897  156.4595 H   0  0  0  0  0  0  0  0  0  0  0  0
  130.2802  134.3595  157.3226 H   0  0  0  0  0  0  0  0  0  0  0  0
  1  2  1  0
  1 25  1  0
  1 26  1  0
  1 27  1  0
  2  3  1  6
  2  7  1  0
  2  4  1  0
  4  5  1  0
  4 28  1  0
  4 29  1  0
  5  6  1  0
  5 30  1  0
  5 31  1  0
  6  7  1  0
  6 32  1  0
  7  8  2  0
  8  9  1  0
  8 33  1  0
  9 10  1  0
  9 34  1  0
 10 24  1  0
 10 11  1  0
 10 35  1  0
 11 17  1  0
 11 12  2  0
 12 13  1  0
 12 36  1  0
 13 14  1  0
 13 15  2  0
 14 37  1  0
 15 16  1  0
 15 38  1  0
 16 17  2  0
 16 39  1  0
 17 18  1  0
 18 24  2  0
 18 19  1  0
 19 20  2  0
 19 40  1  0
 20 21  1  0
 20 41  1  0
 21 22  1  0
 21 23  2  0
 22 42  1  0
 23 24  1  0
 23 43  1  0
M  CHG  1   2   1
M  END
>  <DOCK_score>  (1) 
-48.743835

>  <SMILES>  (1) 
C[N@H+]1CCNC1=CNC1c2cc(O)ccc2-c2ccc(O)cc21

$$$$
