Nc1ccc(-c2c[nH]c(N[C@@H](Cc3ccc(N4CCC4)cc3)c3ccc(F)cc3)[nH+]2)cc1
     RDKit          3D

 59 63  0  0  1  0  0  0  0  0999 V2000
  131.6696  129.5381  152.0477 N   0  0  0  0  0  0  0  0  0  0  0  0
  131.3104  130.1974  153.2257 C   0  0  0  0  0  0  0  0  0  0  0  0
  130.5495  131.3588  153.1665 C   0  0  0  0  0  0  0  0  0  0  0  0
  130.1937  132.0112  154.3280 C   0  0  0  0  0  0  0  0  0  0  0  0
  130.5978  131.5049  155.5624 C   0  0  0  0  0  0  0  0  0  0  0  0
  130.2162  132.2051  156.8135 C   0  0  0  0  0  0  0  0  0  0  0  0
  129.4840  131.6832  157.8283 C   0  0  0  0  0  0  0  0  0  0  0  0
  129.3626  132.6681  158.7799 N   0  0  0  0  0  0  0  0  0  0  0  0
  128.8895  132.5968  159.6237 H   0  0  0  0  0  0  0  0  0  0  0  0
  130.0292  133.7613  158.3193 C   0  0  0  0  0  0  0  0  0  0  0  0
  130.1483  134.9713  158.9815 N   0  0  0  0  0  0  0  0  0  0  0  0
  129.0862  135.4191  159.8857 C   0  0  1  0  0  0  0  0  0  0  0  0
  128.9608  134.6915  160.6874 H   0  0  0  0  0  0  0  0  0  0  0  0
  129.4637  136.7762  160.4830 C   0  0  0  0  0  0  0  0  0  0  0  0
  130.7545  136.6460  161.2498 C   0  0  0  0  0  0  0  0  0  0  0  0
  131.0798  135.4455  161.8540 C   0  0  0  0  0  0  0  0  0  0  0  0
  132.2647  135.3210  162.5527 C   0  0  0  0  0  0  0  0  0  0  0  0
  133.1245  136.4069  162.6577 C   0  0  0  0  0  0  0  0  0  0  0  0
  134.3208  136.2867  163.3683 N   0  0  0  0  0  0  0  0  0  0  0  0
  135.1169  135.1476  162.8728 C   0  0  0  0  0  0  0  0  0  0  0  0
  136.3633  136.0345  163.0010 C   0  0  0  0  0  0  0  0  0  0  0  0
  135.3568  137.1785  162.8143 C   0  0  0  0  0  0  0  0  0  0  0  0
  132.7919  137.6132  162.0543 C   0  0  0  0  0  0  0  0  0  0  0  0
  131.6081  137.7290  161.3523 C   0  0  0  0  0  0  0  0  0  0  0  0
  127.7954  135.5494  159.1189 C   0  0  0  0  0  0  0  0  0  0  0  0
  126.5880  135.3380  159.7581 C   0  0  0  0  0  0  0  0  0  0  0  0
  125.4035  135.4628  159.0571 C   0  0  0  0  0  0  0  0  0  0  0  0
  125.4268  135.7889  157.7117 C   0  0  0  0  0  0  0  0  0  0  0  0
  124.2697  135.9056  157.0242 F   0  0  0  0  0  0  0  0  0  0  0  0
  126.6371  135.9948  157.0712 C   0  0  0  0  0  0  0  0  0  0  0  0
  127.8202  135.8745  157.7754 C   0  0  0  0  0  0  0  0  0  0  0  0
  130.5403  133.4798  157.1456 N   0  0  0  0  0  0  0  0  0  0  0  0
  131.0634  134.0874  156.5996 H   0  0  0  0  0  0  0  0  0  0  0  0
  131.3656  130.3430  155.6192 C   0  0  0  0  0  0  0  0  0  0  0  0
  131.7138  129.6903  154.4554 C   0  0  0  0  0  0  0  0  0  0  0  0
  131.3880  129.8908  151.1893 H   0  0  0  0  0  0  0  0  0  0  0  0
  132.2005  128.7270  152.0883 H   0  0  0  0  0  0  0  0  0  0  0  0
  130.2370  131.7509  152.2099 H   0  0  0  0  0  0  0  0  0  0  0  0
  129.6022  132.9136  154.2814 H   0  0  0  0  0  0  0  0  0  0  0  0
  129.0712  130.6863  157.8777 H   0  0  0  0  0  0  0  0  0  0  0  0
  130.9351  135.5225  158.8467 H   0  0  0  0  0  0  0  0  0  0  0  0
  129.5891  137.5038  159.6813 H   0  0  0  0  0  0  0  0  0  0  0  0
  128.6735  137.1094  161.1559 H   0  0  0  0  0  0  0  0  0  0  0  0
  130.4086  134.6030  161.7761 H   0  0  0  0  0  0  0  0  0  0  0  0
  132.5203  134.3820  163.0207 H   0  0  0  0  0  0  0  0  0  0  0  0
  135.1205  134.2932  163.5498 H   0  0  0  0  0  0  0  0  0  0  0  0
  134.8851  134.8704  161.8444 H   0  0  0  0  0  0  0  0  0  0  0  0
  137.0738  135.9271  162.1813 H   0  0  0  0  0  0  0  0  0  0  0  0
  136.8309  136.0077  163.9852 H   0  0  0  0  0  0  0  0  0  0  0  0
  135.1889  137.4433  161.7704 H   0  0  0  0  0  0  0  0  0  0  0  0
  135.5635  138.0455  163.4418 H   0  0  0  0  0  0  0  0  0  0  0  0
  133.4580  138.4594  162.1342 H   0  0  0  0  0  0  0  0  0  0  0  0
  131.3491  138.6664  160.8827 H   0  0  0  0  0  0  0  0  0  0  0  0
  126.5702  135.0793  160.8064 H   0  0  0  0  0  0  0  0  0  0  0  0
  124.4600  135.3024  159.5578 H   0  0  0  0  0  0  0  0  0  0  0  0
  126.6565  136.2487  156.0217 H   0  0  0  0  0  0  0  0  0  0  0  0
  128.7641  136.0351  157.2761 H   0  0  0  0  0  0  0  0  0  0  0  0
  131.6837  129.9516  156.5742 H   0  0  0  0  0  0  0  0  0  0  0  0
  132.3047  128.7874  154.4992 H   0  0  0  0  0  0  0  0  0  0  0  0
  1  2  1  0
  1 36  1  0
  1 37  1  0
  2 35  2  0
  2  3  1  0
  3  4  2  0
  3 38  1  0
  4  5  1  0
  4 39  1  0
  5  6  1  0
  5 34  2  0
  6 32  1  0
  6  7  2  0
  7  8  1  0
  7 40  1  0
  8  9  1  0
  8 10  1  0
 10 11  1  0
 10 32  2  0
 11 12  1  0
 11 41  1  0
 12 13  1  1
 12 14  1  0
 12 25  1  0
 14 15  1  0
 14 42  1  0
 14 43  1  0
 15 24  1  0
 15 16  2  0
 16 17  1  0
 16 44  1  0
 17 18  2  0
 17 45  1  0
 18 19  1  0
 18 23  1  0
 19 22  1  0
 19 20  1  0
 20 21  1  0
 20 46  1  0
 20 47  1  0
 21 22  1  0
 21 48  1  0
 21 49  1  0
 22 50  1  0
 22 51  1  0
 23 24  2  0
 23 52  1  0
 24 53  1  0
 25 31  1  0
 25 26  2  0
 26 27  1  0
 26 54  1  0
 27 28  2  0
 27 55  1  0
 28 29  1  0
 28 30  1  0
 30 31  2  0
 30 56  1  0
 31 57  1  0
 32 33  1  0
 34 35  1  0
 34 58  1  0
 35 59  1  0
M  CHG  1  32   1
M  END
>  <DOCK_score>  (1) 
-61.916321

>  <SMILES>  (1) 
Nc1ccc(-c2c[nH]c(N[C@@H](Cc3ccc(N4CCC4)cc3)c3ccc(F)cc3)[nH+]2)cc1

$$$$
