C[C@@H](Cc1ccc(Br)cc1)Nc1[nH]cc(-c2cccc(O)c2)[nH+]1
     RDKit          3D

 42 44  0  0  1  0  0  0  0  0999 V2000
  132.5323  133.4755  161.3165 C   0  0  0  0  0  0  0  0  0  0  0  0
  131.8936  134.8651  161.2755 C   0  0  1  0  0  0  0  0  0  0  0  0
  131.0885  134.9168  162.0086 H   0  0  0  0  0  0  0  0  0  0  0  0
  132.9502  135.9220  161.6031 C   0  0  0  0  0  0  0  0  0  0  0  0
  132.3212  137.2908  161.5627 C   0  0  0  0  0  0  0  0  0  0  0  0
  132.3082  138.0108  160.3825 C   0  0  0  0  0  0  0  0  0  0  0  0
  131.7270  139.2641  160.3437 C   0  0  0  0  0  0  0  0  0  0  0  0
  131.1677  139.8026  161.4885 C   0  0  0  0  0  0  0  0  0  0  0  0
  130.3793  141.5207  161.4380 Br  0  0  0  0  0  0  0  0  0  0  0  0
  131.1854  139.0841  162.6704 C   0  0  0  0  0  0  0  0  0  0  0  0
  131.7622  137.8285  162.7069 C   0  0  0  0  0  0  0  0  0  0  0  0
  131.3520  135.1144  159.9373 N   0  0  0  0  0  0  0  0  0  0  0  0
  130.0469  134.7599  159.6416 C   0  0  0  0  0  0  0  0  0  0  0  0
  129.4275  134.9433  158.4438 N   0  0  0  0  0  0  0  0  0  0  0  0
  129.8179  135.3420  157.6503 H   0  0  0  0  0  0  0  0  0  0  0  0
  128.1486  134.4568  158.5648 C   0  0  0  0  0  0  0  0  0  0  0  0
  128.0207  133.9978  159.8344 C   0  0  0  0  0  0  0  0  0  0  0  0
  126.8042  133.3862  160.4230 C   0  0  0  0  0  0  0  0  0  0  0  0
  126.6037  132.0090  160.3395 C   0  0  0  0  0  0  0  0  0  0  0  0
  125.4736  131.4417  160.8927 C   0  0  0  0  0  0  0  0  0  0  0  0
  124.5332  132.2367  161.5212 C   0  0  0  0  0  0  0  0  0  0  0  0
  124.7224  133.6092  161.6036 C   0  0  0  0  0  0  0  0  0  0  0  0
  123.7949  134.3870  162.2216 O   0  0  0  0  0  0  0  0  0  0  0  0
  125.8564  134.1866  161.0559 C   0  0  0  0  0  0  0  0  0  0  0  0
  129.2020  134.1975  160.4710 N   0  0  0  0  0  0  0  0  0  0  0  0
  129.3910  133.9620  161.3928 H   0  0  0  0  0  0  0  0  0  0  0  0
  132.9352  133.2899  162.3122 H   0  0  0  0  0  0  0  0  0  0  0  0
  133.3372  133.4238  160.5834 H   0  0  0  0  0  0  0  0  0  0  0  0
  131.7794  132.7225  161.0831 H   0  0  0  0  0  0  0  0  0  0  0  0
  133.3531  135.7366  162.5988 H   0  0  0  0  0  0  0  0  0  0  0  0
  133.7553  135.8703  160.8701 H   0  0  0  0  0  0  0  0  0  0  0  0
  132.7487  137.5919  159.4898 H   0  0  0  0  0  0  0  0  0  0  0  0
  131.7137  139.8250  159.4209 H   0  0  0  0  0  0  0  0  0  0  0  0
  130.7491  139.5043  163.5645 H   0  0  0  0  0  0  0  0  0  0  0  0
  131.7764  137.2676  163.6298 H   0  0  0  0  0  0  0  0  0  0  0  0
  131.9079  135.5278  159.2585 H   0  0  0  0  0  0  0  0  0  0  0  0
  127.3892  134.4456  157.7969 H   0  0  0  0  0  0  0  0  0  0  0  0
  127.3343  131.3858  159.8453 H   0  0  0  0  0  0  0  0  0  0  0  0
  125.3216  130.3742  160.8307 H   0  0  0  0  0  0  0  0  0  0  0  0
  123.6486  131.7885  161.9488 H   0  0  0  0  0  0  0  0  0  0  0  0
  124.0136  135.3290  162.2292 H   0  0  0  0  0  0  0  0  0  0  0  0
  126.0047  135.2545  161.1190 H   0  0  0  0  0  0  0  0  0  0  0  0
  1  2  1  0
  1 27  1  0
  1 28  1  0
  1 29  1  0
  2  3  1  1
  2  4  1  0
  2 12  1  0
  4  5  1  0
  4 30  1  0
  4 31  1  0
  5 11  1  0
  5  6  2  0
  6  7  1  0
  6 32  1  0
  7  8  2  0
  7 33  1  0
  8  9  1  0
  8 10  1  0
 10 11  2  0
 10 34  1  0
 11 35  1  0
 12 36  1  0
 13 12  1  0
 13 25  2  0
 13 14  1  0
 14 15  1  0
 14 16  1  0
 16 17  2  0
 16 37  1  0
 17 18  1  0
 17 25  1  0
 18 24  1  0
 18 19  2  0
 19 20  1  0
 19 38  1  0
 20 21  2  0
 20 39  1  0
 21 22  1  0
 21 40  1  0
 22 23  1  0
 22 24  2  0
 23 41  1  0
 24 42  1  0
 25 26  1  0
M  CHG  1  25   1
M  END
>  <DOCK_score>  (1) 
-49.604687

>  <SMILES>  (1) 
C[C@@H](Cc1ccc(Br)cc1)Nc1[nH]cc(-c2cccc(O)c2)[nH+]1

$$$$
