C1=C(CNc2ccc(-c3n[nH]cc3C[NH2+]CC3CC4C[C@@H]4C3)o2)CCC1
     RDKit          3D

 55 59  0  0  1  0  0  0  0  0999 V2000
  134.9020  139.1638  159.1440 C   0  0  0  0  0  0  0  0  0  0  0  0
  134.2419  138.9194  160.2431 C   0  0  0  0  0  0  0  0  0  0  0  0
  132.9138  138.2095  160.3000 C   0  0  0  0  0  0  0  0  0  0  0  0
  131.9122  139.0947  160.8996 N   0  0  0  0  0  0  0  0  0  0  0  0
  130.6027  138.6560  161.0580 C   0  0  0  0  0  0  0  0  0  0  0  0
  129.6881  139.1830  161.9097 C   0  0  0  0  0  0  0  0  0  0  0  0
  128.4991  138.4457  161.7439 C   0  0  0  0  0  0  0  0  0  0  0  0
  128.7514  137.4984  160.8024 C   0  0  0  0  0  0  0  0  0  0  0  0
  127.7895  136.4918  160.3080 C   0  0  0  0  0  0  0  0  0  0  0  0
  126.7987  135.9606  160.9969 N   0  0  0  0  0  0  0  0  0  0  0  0
  126.1264  135.0565  160.1647 N   0  0  0  0  0  0  0  0  0  0  0  0
  125.3540  134.5235  160.4102 H   0  0  0  0  0  0  0  0  0  0  0  0
  126.7429  135.0509  158.9629 C   0  0  0  0  0  0  0  0  0  0  0  0
  127.7716  135.9239  159.0166 C   0  0  0  0  0  0  0  0  0  0  0  0
  128.7301  136.2360  157.8964 C   0  0  0  0  0  0  0  0  0  0  0  0
  129.8793  135.3235  157.9667 N   0  0  0  0  0  0  0  0  0  0  0  0
  130.5211  135.5325  157.2166 H   0  0  0  0  0  0  0  0  0  0  0  0
  130.3478  135.4405  158.8527 H   0  0  0  0  0  0  0  0  0  0  0  0
  129.4119  133.9368  157.8392 C   0  0  0  0  0  0  0  0  0  0  0  0
  130.6088  132.9864  157.9124 C   0  0  2  0  0  0  0  0  0  0  0  0
  130.2079  131.5624  157.4536 C   0  0  0  0  0  0  0  0  0  0  0  0
  131.2427  130.6410  158.1319 C   0  0  2  0  0  0  0  0  0  0  0  0
  130.9425  130.1327  159.5435 C   0  0  0  0  0  0  0  0  0  0  0  0
  131.7735  131.4040  159.3583 C   0  0  2  0  0  0  0  0  0  0  0  0
  132.8282  131.3966  159.6331 H   0  0  0  0  0  0  0  0  0  0  0  0
  131.0427  132.7623  159.3823 C   0  0  0  0  0  0  0  0  0  0  0  0
  130.0296  137.6388  160.3925 O   0  0  0  0  0  0  0  0  0  0  0  0
  134.9873  139.4361  161.4518 C   0  0  0  0  0  0  0  0  0  0  0  0
  136.0292  140.4243  160.8781 C   0  0  0  0  0  0  0  0  0  0  0  0
  136.1932  139.8924  159.4354 C   0  0  0  0  0  0  0  0  0  0  0  0
  134.5681  138.8838  158.1558 H   0  0  0  0  0  0  0  0  0  0  0  0
  133.0096  137.3074  160.9043 H   0  0  0  0  0  0  0  0  0  0  0  0
  132.6025  137.9395  159.2909 H   0  0  0  0  0  0  0  0  0  0  0  0
  132.1628  139.9869  161.1859 H   0  0  0  0  0  0  0  0  0  0  0  0
  129.8411  140.0126  162.5842 H   0  0  0  0  0  0  0  0  0  0  0  0
  127.5665  138.6021  162.2658 H   0  0  0  0  0  0  0  0  0  0  0  0
  126.4620  134.4532  158.1084 H   0  0  0  0  0  0  0  0  0  0  0  0
  128.2240  136.1098  156.9393 H   0  0  0  0  0  0  0  0  0  0  0  0
  129.0770  137.2650  157.9910 H   0  0  0  0  0  0  0  0  0  0  0  0
  128.7187  133.7110  158.6495 H   0  0  0  0  0  0  0  0  0  0  0  0
  128.9057  133.8105  156.8821 H   0  0  0  0  0  0  0  0  0  0  0  0
  131.4394  133.3673  157.3183 H   0  0  0  0  0  0  0  0  0  0  0  0
  129.2010  131.3211  157.7944 H   0  0  0  0  0  0  0  0  0  0  0  0
  130.2750  131.4780  156.3690 H   0  0  0  0  0  0  0  0  0  0  0  0
  131.9099  130.0671  157.4889 H   0  0  0  0  0  0  0  0  0  0  0  0
  131.4641  129.2353  159.8760 H   0  0  0  0  0  0  0  0  0  0  0  0
  129.9234  130.2478  159.9128 H   0  0  0  0  0  0  0  0  0  0  0  0
  131.7192  133.5538  159.7051 H   0  0  0  0  0  0  0  0  0  0  0  0
  130.1708  132.7173  160.0349 H   0  0  0  0  0  0  0  0  0  0  0  0
  134.3048  139.9531  162.1264 H   0  0  0  0  0  0  0  0  0  0  0  0
  135.4843  138.6163  161.9704 H   0  0  0  0  0  0  0  0  0  0  0  0
  135.6430  141.4436  160.8778 H   0  0  0  0  0  0  0  0  0  0  0  0
  136.9692  140.3640  161.4266 H   0  0  0  0  0  0  0  0  0  0  0  0
  136.3307  140.7197  158.7390 H   0  0  0  0  0  0  0  0  0  0  0  0
  137.0367  139.2045  159.3779 H   0  0  0  0  0  0  0  0  0  0  0  0
  1 30  1  0
  1  2  2  0
  1 31  1  0
  2  3  1  0
  2 28  1  0
  3  4  1  0
  3 32  1  0
  3 33  1  0
  4  5  1  0
  4 34  1  0
  5 27  1  0
  5  6  2  0
  6  7  1  0
  6 35  1  0
  7  8  2  0
  7 36  1  0
  8  9  1  0
  8 27  1  0
  9 14  1  0
  9 10  2  0
 10 11  1  0
 11 12  1  0
 11 13  1  0
 13 14  2  0
 13 37  1  0
 14 15  1  0
 15 16  1  0
 15 38  1  0
 15 39  1  0
 16 17  1  0
 16 18  1  0
 16 19  1  0
 19 20  1  0
 19 40  1  0
 19 41  1  0
 20 26  1  0
 20 21  1  0
 20 42  1  6
 21 22  1  0
 21 43  1  0
 21 44  1  0
 22 24  1  0
 22 23  1  0
 22 45  1  6
 23 24  1  0
 23 46  1  0
 23 47  1  0
 24 25  1  6
 24 26  1  0
 26 48  1  0
 26 49  1  0
 28 29  1  0
 28 50  1  0
 28 51  1  0
 29 30  1  0
 29 52  1  0
 29 53  1  0
 30 54  1  0
 30 55  1  0
M  CHG  1  16   1
M  END
>  <DOCK_score>  (1) 
-45.760017

>  <SMILES>  (1) 
C1=C(CNc2ccc(-c3n[nH]cc3C[NH2+]CC3CC4C[C@@H]4C3)o2)CCC1

$$$$
