Cc1ccc(Br)c(-c2c[nH]c(N[C@@H](c3ccc(Cl)cc3)c3ccccc3Cl)[nH+]2)c1
     RDKit          3D

 48 51  0  0  1  0  0  0  0  0999 V2000
  130.0648  131.6132  151.8264 C   0  0  0  0  0  0  0  0  0  0  0  0
  130.4919  131.1856  153.2069 C   0  0  0  0  0  0  0  0  0  0  0  0
  131.2818  130.0611  153.3675 C   0  0  0  0  0  0  0  0  0  0  0  0
  131.6773  129.6622  154.6313 C   0  0  0  0  0  0  0  0  0  0  0  0
  131.2853  130.3854  155.7407 C   0  0  0  0  0  0  0  0  0  0  0  0
  131.8268  129.8389  157.4680 Br  0  0  0  0  0  0  0  0  0  0  0  0
  130.4896  131.5197  155.5842 C   0  0  0  0  0  0  0  0  0  0  0  0
  130.0646  132.3006  156.7714 C   0  0  0  0  0  0  0  0  0  0  0  0
  129.3275  131.8357  157.8104 C   0  0  0  0  0  0  0  0  0  0  0  0
  129.1707  132.8816  158.6875 N   0  0  0  0  0  0  0  0  0  0  0  0
  128.6916  132.8576  159.5305 H   0  0  0  0  0  0  0  0  0  0  0  0
  129.8095  133.9583  158.1538 C   0  0  0  0  0  0  0  0  0  0  0  0
  129.8856  135.2163  158.7267 N   0  0  0  0  0  0  0  0  0  0  0  0
  128.8013  135.6963  159.5867 C   0  0  1  0  0  0  0  0  0  0  0  0
  128.6889  135.0255  160.4384 H   0  0  0  0  0  0  0  0  0  0  0  0
  129.1270  137.0830  160.0791 C   0  0  0  0  0  0  0  0  0  0  0  0
  128.6584  137.5075  161.3084 C   0  0  0  0  0  0  0  0  0  0  0  0
  128.9564  138.7793  161.7603 C   0  0  0  0  0  0  0  0  0  0  0  0
  129.7194  139.6293  160.9796 C   0  0  0  0  0  0  0  0  0  0  0  0
  130.0874  141.2295  161.5430 Cl  0  0  0  0  0  0  0  0  0  0  0  0
  130.1935  139.2015  159.7524 C   0  0  0  0  0  0  0  0  0  0  0  0
  129.8945  137.9297  159.3014 C   0  0  0  0  0  0  0  0  0  0  0  0
  127.5153  135.7311  158.8017 C   0  0  0  0  0  0  0  0  0  0  0  0
  127.5437  135.9582  157.4384 C   0  0  0  0  0  0  0  0  0  0  0  0
  126.3644  135.9897  156.7182 C   0  0  0  0  0  0  0  0  0  0  0  0
  125.1557  135.7953  157.3609 C   0  0  0  0  0  0  0  0  0  0  0  0
  125.1260  135.5686  158.7238 C   0  0  0  0  0  0  0  0  0  0  0  0
  126.3069  135.5303  159.4442 C   0  0  0  0  0  0  0  0  0  0  0  0
  126.2712  135.2375  161.1550 Cl  0  0  0  0  0  0  0  0  0  0  0  0
  130.3453  133.6064  157.0105 N   0  0  0  0  0  0  0  0  0  0  0  0
  130.8601  134.1868  156.4282 H   0  0  0  0  0  0  0  0  0  0  0  0
  130.0904  131.9135  154.3081 C   0  0  0  0  0  0  0  0  0  0  0  0
  129.1180  131.1352  151.5745 H   0  0  0  0  0  0  0  0  0  0  0  0
  129.9426  132.6960  151.8030 H   0  0  0  0  0  0  0  0  0  0  0  0
  130.8248  131.3177  151.1029 H   0  0  0  0  0  0  0  0  0  0  0  0
  131.5904  129.4924  152.5029 H   0  0  0  0  0  0  0  0  0  0  0  0
  132.2937  128.7834  154.7508 H   0  0  0  0  0  0  0  0  0  0  0  0
  128.9419  130.8339  157.9283 H   0  0  0  0  0  0  0  0  0  0  0  0
  130.6570  135.7798  158.5585 H   0  0  0  0  0  0  0  0  0  0  0  0
  128.0590  136.8453  161.9158 H   0  0  0  0  0  0  0  0  0  0  0  0
  128.5900  139.1109  162.7206 H   0  0  0  0  0  0  0  0  0  0  0  0
  130.7933  139.8630  159.1446 H   0  0  0  0  0  0  0  0  0  0  0  0
  130.2609  137.5972  158.3413 H   0  0  0  0  0  0  0  0  0  0  0  0
  128.4874  136.1105  156.9359 H   0  0  0  0  0  0  0  0  0  0  0  0
  126.3869  136.1667  155.6530 H   0  0  0  0  0  0  0  0  0  0  0  0
  124.2343  135.8211  156.7980 H   0  0  0  0  0  0  0  0  0  0  0  0
  124.1820  135.4163  159.2257 H   0  0  0  0  0  0  0  0  0  0  0  0
  129.4704  132.7887  154.1814 H   0  0  0  0  0  0  0  0  0  0  0  0
  1  2  1  0
  1 33  1  0
  1 34  1  0
  1 35  1  0
  2 32  2  0
  2  3  1  0
  3  4  2  0
  3 36  1  0
  4  5  1  0
  4 37  1  0
  5  6  1  0
  5  7  2  0
  7  8  1  0
  7 32  1  0
  8 30  1  0
  8  9  2  0
  9 10  1  0
  9 38  1  0
 10 11  1  0
 10 12  1  0
 12 13  1  0
 12 30  2  0
 13 14  1  0
 13 39  1  0
 14 15  1  1
 14 16  1  0
 14 23  1  0
 16 22  1  0
 16 17  2  0
 17 18  1  0
 17 40  1  0
 18 19  2  0
 18 41  1  0
 19 20  1  0
 19 21  1  0
 21 22  2  0
 21 42  1  0
 22 43  1  0
 23 28  1  0
 23 24  2  0
 24 25  1  0
 24 44  1  0
 25 26  2  0
 25 45  1  0
 26 27  1  0
 26 46  1  0
 27 28  2  0
 27 47  1  0
 28 29  1  0
 30 31  1  0
 32 48  1  0
M  CHG  1  30   1
M  END
>  <DOCK_score>  (1) 
-67.331604

>  <SMILES>  (1) 
Cc1ccc(Br)c(-c2c[nH]c(N[C@@H](c3ccc(Cl)cc3)c3ccccc3Cl)[nH+]2)c1

$$$$
