CCc1ccc(-c2ccc3c(c2)OC[C@H](NC(N[C@H]2CCC(=O)NC2)=[NH+]C2CCOCC2)C3)cc1
     RDKit          3D

 72 76  0  0  1  0  0  0  0  0999 V2000
  135.9995  138.3354  171.1147 C   0  0  0  0  0  0  0  0  0  0  0  0
  137.0061  137.4638  170.3609 C   0  0  0  0  0  0  0  0  0  0  0  0
  136.4717  137.1535  168.9865 C   0  0  0  0  0  0  0  0  0  0  0  0
  136.7593  137.9972  167.9287 C   0  0  0  0  0  0  0  0  0  0  0  0
  136.2732  137.7174  166.6677 C   0  0  0  0  0  0  0  0  0  0  0  0
  135.4912  136.5828  166.4611 C   0  0  0  0  0  0  0  0  0  0  0  0
  134.9659  136.2767  165.1074 C   0  0  0  0  0  0  0  0  0  0  0  0
  135.6770  136.6703  163.9750 C   0  0  0  0  0  0  0  0  0  0  0  0
  135.1839  136.3817  162.7203 C   0  0  0  0  0  0  0  0  0  0  0  0
  133.9840  135.7028  162.5750 C   0  0  0  0  0  0  0  0  0  0  0  0
  133.2699  135.3109  163.6950 C   0  0  0  0  0  0  0  0  0  0  0  0
  133.7618  135.5963  164.9628 C   0  0  0  0  0  0  0  0  0  0  0  0
  132.0874  134.6494  163.5949 O   0  0  0  0  0  0  0  0  0  0  0  0
  131.7688  134.0371  162.3445 C   0  0  0  0  0  0  0  0  0  0  0  0
  131.9934  135.0675  161.2306 C   0  0  2  0  0  0  0  0  0  0  0  0
  131.4188  135.9692  161.4420 H   0  0  0  0  0  0  0  0  0  0  0  0
  131.5738  134.5044  159.9450 N   0  0  0  0  0  0  0  0  0  0  0  0
  130.2782  134.6660  159.5139 C   0  0  0  0  0  0  0  0  0  0  0  0
  129.3767  135.3559  160.2896 N   0  0  0  0  0  0  0  0  0  0  0  0
  127.9531  135.0143  160.2372 C   0  0  1  0  0  0  0  0  0  0  0  0
  127.5795  135.1486  159.2221 H   0  0  0  0  0  0  0  0  0  0  0  0
  127.7578  133.5558  160.6685 C   0  0  0  0  0  0  0  0  0  0  0  0
  126.2951  133.1726  160.4307 C   0  0  0  0  0  0  0  0  0  0  0  0
  125.3912  134.2216  161.0118 C   0  0  0  0  0  0  0  0  0  0  0  0
  124.2286  133.9349  161.2043 O   0  0  0  0  0  0  0  0  0  0  0  0
  125.7985  135.4515  161.3280 N   0  0  0  0  0  0  0  0  0  0  0  0
  127.1734  135.9165  161.1945 C   0  0  0  0  0  0  0  0  0  0  0  0
  129.9045  134.1649  158.3702 N   0  0  0  0  0  0  0  0  0  0  0  0
  129.2028  134.5962  157.8579 H   0  0  0  0  0  0  0  0  0  0  0  0
  130.5442  132.9504  157.8585 C   0  0  0  0  0  0  0  0  0  0  0  0
  129.9202  132.5708  156.5121 C   0  0  0  0  0  0  0  0  0  0  0  0
  130.5376  131.2574  156.0244 C   0  0  0  0  0  0  0  0  0  0  0  0
  130.3321  130.2403  157.0069 O   0  0  0  0  0  0  0  0  0  0  0  0
  130.9358  130.5202  158.2716 C   0  0  0  0  0  0  0  0  0  0  0  0
  130.3327  131.8027  158.8506 C   0  0  0  0  0  0  0  0  0  0  0  0
  133.4855  135.4060  161.1830 C   0  0  0  0  0  0  0  0  0  0  0  0
  135.1996  135.7397  167.5314 C   0  0  0  0  0  0  0  0  0  0  0  0
  135.6959  136.0258  168.7871 C   0  0  0  0  0  0  0  0  0  0  0  0
  135.8424  139.2650  170.5676 H   0  0  0  0  0  0  0  0  0  0  0  0
  135.0530  137.8023  171.2046 H   0  0  0  0  0  0  0  0  0  0  0  0
  136.3860  138.5599  172.1089 H   0  0  0  0  0  0  0  0  0  0  0  0
  137.1631  136.5342  170.9081 H   0  0  0  0  0  0  0  0  0  0  0  0
  137.9526  137.9969  170.2711 H   0  0  0  0  0  0  0  0  0  0  0  0
  137.3655  138.8765  168.0899 H   0  0  0  0  0  0  0  0  0  0  0  0
  136.4989  138.3765  165.8423 H   0  0  0  0  0  0  0  0  0  0  0  0
  136.6122  137.2001  164.0804 H   0  0  0  0  0  0  0  0  0  0  0  0
  135.7363  136.6871  161.8441 H   0  0  0  0  0  0  0  0  0  0  0  0
  133.2076  135.2895  165.8376 H   0  0  0  0  0  0  0  0  0  0  0  0
  130.7260  133.7197  162.3462 H   0  0  0  0  0  0  0  0  0  0  0  0
  132.4153  133.1746  162.1830 H   0  0  0  0  0  0  0  0  0  0  0  0
  132.2097  134.0177  159.3978 H   0  0  0  0  0  0  0  0  0  0  0  0
  129.6834  136.0688  160.8715 H   0  0  0  0  0  0  0  0  0  0  0  0
  128.4072  132.9086  160.0789 H   0  0  0  0  0  0  0  0  0  0  0  0
  127.9979  133.4507  161.7265 H   0  0  0  0  0  0  0  0  0  0  0  0
  126.1120  133.0900  159.3593 H   0  0  0  0  0  0  0  0  0  0  0  0
  126.0899  132.2138  160.9067 H   0  0  0  0  0  0  0  0  0  0  0  0
  125.1385  136.0756  161.6682 H   0  0  0  0  0  0  0  0  0  0  0  0
  127.6543  135.9048  162.1727 H   0  0  0  0  0  0  0  0  0  0  0  0
  127.1731  136.9361  160.8089 H   0  0  0  0  0  0  0  0  0  0  0  0
  131.6119  133.1277  157.7284 H   0  0  0  0  0  0  0  0  0  0  0  0
  128.8443  132.4435  156.6322 H   0  0  0  0  0  0  0  0  0  0  0  0
  130.1156  133.3590  155.7849 H   0  0  0  0  0  0  0  0  0  0  0  0
  131.6068  131.3975  155.8642 H   0  0  0  0  0  0  0  0  0  0  0  0
  130.0657  130.9593  155.0882 H   0  0  0  0  0  0  0  0  0  0  0  0
  132.0100  130.6505  158.1408 H   0  0  0  0  0  0  0  0  0  0  0  0
  130.7504  129.6909  158.9543 H   0  0  0  0  0  0  0  0  0  0  0  0
  130.8229  132.0420  159.7943 H   0  0  0  0  0  0  0  0  0  0  0  0
  129.2655  131.6601  159.0204 H   0  0  0  0  0  0  0  0  0  0  0  0
  134.0365  134.5596  160.7732 H   0  0  0  0  0  0  0  0  0  0  0  0
  133.6391  136.2797  160.5495 H   0  0  0  0  0  0  0  0  0  0  0  0
  134.5902  134.8614  167.3779 H   0  0  0  0  0  0  0  0  0  0  0  0
  135.4745  135.3706  169.6164 H   0  0  0  0  0  0  0  0  0  0  0  0
  1  2  1  0
  1 39  1  0
  1 40  1  0
  1 41  1  0
  2  3  1  0
  2 42  1  0
  2 43  1  0
  3 38  2  0
  3  4  1  0
  4  5  2  0
  4 44  1  0
  5  6  1  0
  5 45  1  0
  6  7  1  0
  6 37  2  0
  7 12  1  0
  7  8  2  0
  8  9  1  0
  8 46  1  0
  9 10  2  0
  9 47  1  0
 10 36  1  0
 10 11  1  0
 11 12  2  0
 11 13  1  0
 12 48  1  0
 13 14  1  0
 14 15  1  0
 14 49  1  0
 14 50  1  0
 15 16  1  1
 15 17  1  0
 15 36  1  0
 17 51  1  0
 18 17  1  0
 18 19  1  0
 18 28  2  0
 19 20  1  0
 19 52  1  0
 20 21  1  6
 20 27  1  0
 20 22  1  0
 22 23  1  0
 22 53  1  0
 22 54  1  0
 23 24  1  0
 23 55  1  0
 23 56  1  0
 24 25  2  0
 24 26  1  0
 26 27  1  0
 26 57  1  0
 27 58  1  0
 27 59  1  0
 28 29  1  0
 28 30  1  0
 30 35  1  0
 30 31  1  0
 30 60  1  0
 31 32  1  0
 31 61  1  0
 31 62  1  0
 32 33  1  0
 32 63  1  0
 32 64  1  0
 33 34  1  0
 34 35  1  0
 34 65  1  0
 34 66  1  0
 35 67  1  0
 35 68  1  0
 36 69  1  0
 36 70  1  0
 37 38  1  0
 37 71  1  0
 38 72  1  0
M  CHG  1  28   1
M  END
>  <DOCK_score>  (1) 
-41.658306

>  <SMILES>  (1) 
CCc1ccc(-c2ccc3c(c2)OC[C@H](NC(N[C@H]2CCC(=O)NC2)=[NH+]C2CCOCC2)C3)cc1

$$$$
