Nc1ccc(-c2ccc([C@H](Nc3[nH]cc(-c4ccc(N)cc4)[nH+]3)c3ccccc3)cc2)cc1
     RDKit          3D

 59 63  0  0  1  0  0  0  0  0999 V2000
  138.5540  140.3586  161.8352 N   0  0  0  0  0  0  0  0  0  0  0  0
  137.3924  139.6161  161.6179 C   0  0  0  0  0  0  0  0  0  0  0  0
  136.6237  139.8466  160.4825 C   0  0  0  0  0  0  0  0  0  0  0  0
  135.4759  139.1145  160.2659 C   0  0  0  0  0  0  0  0  0  0  0  0
  135.0864  138.1423  161.1859 C   0  0  0  0  0  0  0  0  0  0  0  0
  133.8518  137.3532  160.9547 C   0  0  0  0  0  0  0  0  0  0  0  0
  133.7572  136.0468  161.4309 C   0  0  0  0  0  0  0  0  0  0  0  0
  132.6038  135.3194  161.2180 C   0  0  0  0  0  0  0  0  0  0  0  0
  131.5452  135.8824  160.5284 C   0  0  0  0  0  0  0  0  0  0  0  0
  130.2887  135.0827  160.2987 C   0  0  2  0  0  0  0  0  0  0  0  0
  130.4006  134.0942  160.7442 H   0  0  0  0  0  0  0  0  0  0  0  0
  130.0534  134.9458  158.8593 N   0  0  0  0  0  0  0  0  0  0  0  0
  130.0046  133.6883  158.2824 C   0  0  0  0  0  0  0  0  0  0  0  0
  129.5841  132.5498  158.8977 N   0  0  0  0  0  0  0  0  0  0  0  0
  129.2680  132.4737  159.8115 H   0  0  0  0  0  0  0  0  0  0  0  0
  129.6907  131.5272  157.9849 C   0  0  0  0  0  0  0  0  0  0  0  0
  130.1725  132.0708  156.8401 C   0  0  0  0  0  0  0  0  0  0  0  0
  130.4501  131.3430  155.5775 C   0  0  0  0  0  0  0  0  0  0  0  0
  129.7833  131.6982  154.4059 C   0  0  0  0  0  0  0  0  0  0  0  0
  130.0471  131.0241  153.2323 C   0  0  0  0  0  0  0  0  0  0  0  0
  130.9685  129.9835  153.2194 C   0  0  0  0  0  0  0  0  0  0  0  0
  131.2302  129.2980  152.0306 N   0  0  0  0  0  0  0  0  0  0  0  0
  131.6303  129.6242  154.3873 C   0  0  0  0  0  0  0  0  0  0  0  0
  131.3739  130.2991  155.5621 C   0  0  0  0  0  0  0  0  0  0  0  0
  130.3505  133.3989  157.0515 N   0  0  0  0  0  0  0  0  0  0  0  0
  130.6825  134.0330  156.3969 H   0  0  0  0  0  0  0  0  0  0  0  0
  129.1197  135.7906  160.9337 C   0  0  0  0  0  0  0  0  0  0  0  0
  129.3115  136.5682  162.0604 C   0  0  0  0  0  0  0  0  0  0  0  0
  128.2399  137.2211  162.6403 C   0  0  0  0  0  0  0  0  0  0  0  0
  126.9749  137.0888  162.0990 C   0  0  0  0  0  0  0  0  0  0  0  0
  126.7822  136.3071  160.9754 C   0  0  0  0  0  0  0  0  0  0  0  0
  127.8544  135.6577  160.3929 C   0  0  0  0  0  0  0  0  0  0  0  0
  131.6353  137.1769  160.0494 C   0  0  0  0  0  0  0  0  0  0  0  0
  132.7838  137.9137  160.2565 C   0  0  0  0  0  0  0  0  0  0  0  0
  135.8559  137.9165  162.3262 C   0  0  0  0  0  0  0  0  0  0  0  0
  137.0057  138.6472  162.5364 C   0  0  0  0  0  0  0  0  0  0  0  0
  138.8245  141.0347  161.1942 H   0  0  0  0  0  0  0  0  0  0  0  0
  139.0909  140.1985  162.6268 H   0  0  0  0  0  0  0  0  0  0  0  0
  136.9258  140.5998  159.7699 H   0  0  0  0  0  0  0  0  0  0  0  0
  134.8785  139.2942  159.3841 H   0  0  0  0  0  0  0  0  0  0  0  0
  134.5831  135.6062  161.9695 H   0  0  0  0  0  0  0  0  0  0  0  0
  132.5279  134.3083  161.5902 H   0  0  0  0  0  0  0  0  0  0  0  0
  129.9318  135.7362  158.3103 H   0  0  0  0  0  0  0  0  0  0  0  0
  129.4387  130.4899  158.1485 H   0  0  0  0  0  0  0  0  0  0  0  0
  129.0637  132.5034  154.4167 H   0  0  0  0  0  0  0  0  0  0  0  0
  129.5344  131.3022  152.3234 H   0  0  0  0  0  0  0  0  0  0  0  0
  131.8735  128.5727  152.0202 H   0  0  0  0  0  0  0  0  0  0  0  0
  130.7689  129.5492  151.2146 H   0  0  0  0  0  0  0  0  0  0  0  0
  132.3457  128.8151  154.3751 H   0  0  0  0  0  0  0  0  0  0  0  0
  131.8886  130.0196  156.4694 H   0  0  0  0  0  0  0  0  0  0  0  0
  130.2993  136.6684  162.4857 H   0  0  0  0  0  0  0  0  0  0  0  0
  128.3905  137.8321  163.5180 H   0  0  0  0  0  0  0  0  0  0  0  0
  126.1371  137.5968  162.5536 H   0  0  0  0  0  0  0  0  0  0  0  0
  125.7937  136.2039  160.5524 H   0  0  0  0  0  0  0  0  0  0  0  0
  127.7038  135.0469  159.5151 H   0  0  0  0  0  0  0  0  0  0  0  0
  130.8056  137.6118  159.5120 H   0  0  0  0  0  0  0  0  0  0  0  0
  132.8530  138.9243  159.8820 H   0  0  0  0  0  0  0  0  0  0  0  0
  135.5534  137.1669  163.0425 H   0  0  0  0  0  0  0  0  0  0  0  0
  137.6043  138.4697  163.4176 H   0  0  0  0  0  0  0  0  0  0  0  0
  1  2  1  0
  1 37  1  0
  1 38  1  0
  2 36  2  0
  2  3  1  0
  3  4  2  0
  3 39  1  0
  4  5  1  0
  4 40  1  0
  5  6  1  0
  5 35  2  0
  6 34  1  0
  6  7  2  0
  7  8  1  0
  7 41  1  0
  8  9  2  0
  8 42  1  0
  9 10  1  0
  9 33  1  0
 10 11  1  1
 10 12  1  0
 10 27  1  0
 12 43  1  0
 13 12  1  0
 13 25  2  0
 13 14  1  0
 14 15  1  0
 14 16  1  0
 16 17  2  0
 16 44  1  0
 17 18  1  0
 17 25  1  0
 18 24  1  0
 18 19  2  0
 19 20  1  0
 19 45  1  0
 20 21  2  0
 20 46  1  0
 21 22  1  0
 21 23  1  0
 22 47  1  0
 22 48  1  0
 23 24  2  0
 23 49  1  0
 24 50  1  0
 25 26  1  0
 27 32  1  0
 27 28  2  0
 28 29  1  0
 28 51  1  0
 29 30  2  0
 29 52  1  0
 30 31  1  0
 30 53  1  0
 31 32  2  0
 31 54  1  0
 32 55  1  0
 33 34  2  0
 33 56  1  0
 34 57  1  0
 35 36  1  0
 35 58  1  0
 36 59  1  0
M  CHG  1  25   1
M  END
>  <DOCK_score>  (1) 
-57.60178

>  <SMILES>  (1) 
Nc1ccc(-c2ccc([C@H](Nc3[nH]cc(-c4ccc(N)cc4)[nH+]3)c3ccccc3)cc2)cc1

$$$$
