C/C=C/C[NH2+]Cc1c[nH]nc1-c1ccc(NCCc2cccc3ccccc23)o1
     RDKit          3D

 56 59  0  0  0  0  0  0  0  0999 V2000
  134.7570  138.1962  160.7598 C   0  0  0  0  0  0  0  0  0  0  0  0
  133.3574  138.2214  160.2018 C   0  0  0  0  0  0  0  0  0  0  0  0
  132.3285  138.1790  161.0116 C   0  0  0  0  0  0  0  0  0  0  0  0
  130.9289  138.2042  160.4534 C   0  0  0  0  0  0  0  0  0  0  0  0
  130.7331  137.0470  159.5700 N   0  0  0  0  0  0  0  0  0  0  0  0
  131.3980  137.0862  158.8121 H   0  0  0  0  0  0  0  0  0  0  0  0
  129.7960  137.0640  159.1962 H   0  0  0  0  0  0  0  0  0  0  0  0
  130.9335  135.8083  160.3338 C   0  0  0  0  0  0  0  0  0  0  0  0
  130.7326  134.6213  159.4274 C   0  0  0  0  0  0  0  0  0  0  0  0
  131.6883  134.0072  158.6977 C   0  0  0  0  0  0  0  0  0  0  0  0
  131.1090  132.9943  158.0172 N   0  0  0  0  0  0  0  0  0  0  0  0
  131.5589  132.3864  157.4099 H   0  0  0  0  0  0  0  0  0  0  0  0
  129.7461  132.9740  158.3398 N   0  0  0  0  0  0  0  0  0  0  0  0
  129.5131  133.9514  159.1935 C   0  0  0  0  0  0  0  0  0  0  0  0
  128.2059  134.2891  159.7938 C   0  0  0  0  0  0  0  0  0  0  0  0
  127.0325  133.6442  159.5609 C   0  0  0  0  0  0  0  0  0  0  0  0
  126.0495  134.2936  160.3335 C   0  0  0  0  0  0  0  0  0  0  0  0
  126.6697  135.3002  160.9981 C   0  0  0  0  0  0  0  0  0  0  0  0
  126.0606  136.1917  161.8737 N   0  0  0  0  0  0  0  0  0  0  0  0
  126.8545  137.2360  162.5258 C   0  0  0  0  0  0  0  0  0  0  0  0
  126.7762  137.0629  164.0440 C   0  0  0  0  0  0  0  0  0  0  0  0
  127.5929  138.1372  164.7148 C   0  0  0  0  0  0  0  0  0  0  0  0
  128.9097  137.9257  164.9876 C   0  0  0  0  0  0  0  0  0  0  0  0
  129.6807  138.9071  165.6072 C   0  0  0  0  0  0  0  0  0  0  0  0
  129.1395  140.1059  165.9578 C   0  0  0  0  0  0  0  0  0  0  0  0
  127.7836  140.3610  165.6918 C   0  0  0  0  0  0  0  0  0  0  0  0
  127.1883  141.5845  166.0441 C   0  0  0  0  0  0  0  0  0  0  0  0
  125.8731  141.7978  165.7666 C   0  0  0  0  0  0  0  0  0  0  0  0
  125.1020  140.8162  165.1465 C   0  0  0  0  0  0  0  0  0  0  0  0
  125.6430  139.6177  164.7956 C   0  0  0  0  0  0  0  0  0  0  0  0
  126.9995  139.3627  165.0610 C   0  0  0  0  0  0  0  0  0  0  0  0
  127.9712  135.2945  160.6632 O   0  0  0  0  0  0  0  0  0  0  0  0
  135.4754  138.2384  159.9412 H   0  0  0  0  0  0  0  0  0  0  0  0
  134.9023  139.0547  161.4154 H   0  0  0  0  0  0  0  0  0  0  0  0
  134.9057  137.2770  161.3264 H   0  0  0  0  0  0  0  0  0  0  0  0
  133.2026  138.2745  159.1342 H   0  0  0  0  0  0  0  0  0  0  0  0
  132.4834  138.1259  162.0791 H   0  0  0  0  0  0  0  0  0  0  0  0
  130.7802  139.1233  159.8868 H   0  0  0  0  0  0  0  0  0  0  0  0
  130.2104  138.1618  161.2722 H   0  0  0  0  0  0  0  0  0  0  0  0
  130.2149  135.7661  161.1524 H   0  0  0  0  0  0  0  0  0  0  0  0
  131.9457  135.7901  160.7375 H   0  0  0  0  0  0  0  0  0  0  0  0
  132.7324  134.2809  158.6607 H   0  0  0  0  0  0  0  0  0  0  0  0
  126.8823  132.7967  158.9084 H   0  0  0  0  0  0  0  0  0  0  0  0
  125.0014  134.0386  160.3863 H   0  0  0  0  0  0  0  0  0  0  0  0
  125.1098  136.1223  162.0529 H   0  0  0  0  0  0  0  0  0  0  0  0
  126.4625  138.2152  162.2511 H   0  0  0  0  0  0  0  0  0  0  0  0
  127.8929  137.1570  162.2042 H   0  0  0  0  0  0  0  0  0  0  0  0
  127.1683  136.0836  164.3186 H   0  0  0  0  0  0  0  0  0  0  0  0
  125.7378  137.1419  164.3656 H   0  0  0  0  0  0  0  0  0  0  0  0
  129.3635  136.9829  164.7201 H   0  0  0  0  0  0  0  0  0  0  0  0
  130.7231  138.7134  165.8128 H   0  0  0  0  0  0  0  0  0  0  0  0
  129.7492  140.8572  166.4374 H   0  0  0  0  0  0  0  0  0  0  0  0
  127.7723  142.3526  166.5291 H   0  0  0  0  0  0  0  0  0  0  0  0
  125.4191  142.7403  166.0346 H   0  0  0  0  0  0  0  0  0  0  0  0
  124.0593  141.0094  164.9416 H   0  0  0  0  0  0  0  0  0  0  0  0
  125.0334  138.8667  164.3154 H   0  0  0  0  0  0  0  0  0  0  0  0
  1  2  1  0
  1 33  1  0
  1 34  1  0
  1 35  1  0
  2  3  2  0
  2 36  1  0
  3  4  1  0
  3 37  1  0
  4  5  1  0
  4 38  1  0
  4 39  1  0
  5  6  1  0
  5  7  1  0
  5  8  1  0
  8  9  1  0
  8 40  1  0
  8 41  1  0
  9 14  1  0
  9 10  2  0
 10 11  1  0
 10 42  1  0
 11 12  1  0
 11 13  1  0
 13 14  2  0
 14 15  1  0
 15 32  1  0
 15 16  2  0
 16 17  1  0
 16 43  1  0
 17 18  2  0
 17 44  1  0
 18 19  1  0
 18 32  1  0
 19 20  1  0
 19 45  1  0
 20 21  1  0
 20 46  1  0
 20 47  1  0
 21 22  1  0
 21 48  1  0
 21 49  1  0
 22 31  1  0
 22 23  2  0
 23 24  1  0
 23 50  1  0
 24 25  2  0
 24 51  1  0
 25 26  1  0
 25 52  1  0
 26 31  2  0
 26 27  1  0
 27 28  2  0
 27 53  1  0
 28 29  1  0
 28 54  1  0
 29 30  2  0
 29 55  1  0
 30 31  1  0
 30 56  1  0
M  CHG  1   5   1
M  END
>  <DOCK_score>  (1) 
-45.736694

>  <SMILES>  (1) 
C/C=C/C[NH2+]Cc1c[nH]nc1-c1ccc(NCCc2cccc3ccccc23)o1

$$$$
