Nc1ccc(NC2=[NH+]CCN2)c(Cl)c1
     RDKit          3D

 26 27  0  0  0  0  0  0  0  0999 V2000
  126.3869  136.1373  162.0926 N   0  0  0  0  0  0  0  0  0  0  0  0
  127.2917  135.8343  161.0692 C   0  0  0  0  0  0  0  0  0  0  0  0
  128.5554  135.3493  161.3804 C   0  0  0  0  0  0  0  0  0  0  0  0
  129.4488  135.0508  160.3708 C   0  0  0  0  0  0  0  0  0  0  0  0
  129.0862  135.2401  159.0444 C   0  0  0  0  0  0  0  0  0  0  0  0
  129.9958  134.9423  158.0193 N   0  0  0  0  0  0  0  0  0  0  0  0
  130.0254  133.6868  157.4737 C   0  0  0  0  0  0  0  0  0  0  0  0
  129.2247  132.7133  157.8764 N   0  0  0  0  0  0  0  0  0  0  0  0
  128.5574  132.7884  158.5765 H   0  0  0  0  0  0  0  0  0  0  0  0
  129.5039  131.5002  157.0921 C   0  0  0  0  0  0  0  0  0  0  0  0
  130.6395  131.9384  156.1453 C   0  0  0  0  0  0  0  0  0  0  0  0
  130.8609  133.3477  156.5052 N   0  0  0  0  0  0  0  0  0  0  0  0
  127.8205  135.7203  158.7319 C   0  0  0  0  0  0  0  0  0  0  0  0
  127.3646  135.9512  157.0728 Cl  0  0  0  0  0  0  0  0  0  0  0  0
  126.9265  136.0191  159.7422 C   0  0  0  0  0  0  0  0  0  0  0  0
  126.6422  136.0083  163.0194 H   0  0  0  0  0  0  0  0  0  0  0  0
  125.5044  136.4759  161.8751 H   0  0  0  0  0  0  0  0  0  0  0  0
  128.8394  135.2059  162.4126 H   0  0  0  0  0  0  0  0  0  0  0  0
  130.4314  134.6738  160.6134 H   0  0  0  0  0  0  0  0  0  0  0  0
  130.6040  135.6258  157.6967 H   0  0  0  0  0  0  0  0  0  0  0  0
  128.6254  131.1960  156.5231 H   0  0  0  0  0  0  0  0  0  0  0  0
  129.8380  130.6937  157.7449 H   0  0  0  0  0  0  0  0  0  0  0  0
  130.3265  131.8524  155.1048 H   0  0  0  0  0  0  0  0  0  0  0  0
  131.5398  131.3505  156.3240 H   0  0  0  0  0  0  0  0  0  0  0  0
  131.5159  133.9354  156.0972 H   0  0  0  0  0  0  0  0  0  0  0  0
  125.9437  136.3959  159.5000 H   0  0  0  0  0  0  0  0  0  0  0  0
  1  2  1  0
  1 16  1  0
  1 17  1  0
  2 15  2  0
  2  3  1  0
  3  4  2  0
  3 18  1  0
  4  5  1  0
  4 19  1  0
  5  6  1  0
  5 13  2  0
  6  7  1  0
  6 20  1  0
  7 12  2  0
  7  8  1  0
  8  9  1  0
  8 10  1  0
 10 11  1  0
 10 21  1  0
 10 22  1  0
 11 12  1  0
 11 23  1  0
 11 24  1  0
 12 25  1  0
 13 14  1  0
 13 15  1  0
 15 26  1  0
M  CHG  1  12   1
M  END
>  <DOCK_score>  (1) 
-41.399258

>  <SMILES>  (1) 
Nc1ccc(NC2=[NH+]CCN2)c(Cl)c1

$$$$
