Fc1ccc(-c2c[nH]c(NC(CCC3=C[C@@H]4C=CC3CC4)c3ccccc3)[nH+]2)cc1
     RDKit          3D

 57 61  0  0  1  0  0  0  0  0999 V2000
  131.7245  129.4715  151.5257 F   0  0  0  0  0  0  0  0  0  0  0  0
  131.3531  130.1418  152.6383 C   0  0  0  0  0  0  0  0  0  0  0  0
  130.5699  131.2802  152.5289 C   0  0  0  0  0  0  0  0  0  0  0  0
  130.1885  131.9688  153.6620 C   0  0  0  0  0  0  0  0  0  0  0  0
  130.5918  131.5182  154.9176 C   0  0  0  0  0  0  0  0  0  0  0  0
  130.1849  132.2555  156.1389 C   0  0  0  0  0  0  0  0  0  0  0  0
  129.4483  131.7581  157.1630 C   0  0  0  0  0  0  0  0  0  0  0  0
  129.3055  132.7713  158.0803 N   0  0  0  0  0  0  0  0  0  0  0  0
  128.8273  132.7206  158.9226 H   0  0  0  0  0  0  0  0  0  0  0  0
  129.9597  133.8587  157.5889 C   0  0  0  0  0  0  0  0  0  0  0  0
  130.0558  135.0914  158.2118 N   0  0  0  0  0  0  0  0  0  0  0  0
  128.9801  135.5528  159.0928 C   0  0  1  0  0  0  0  0  0  0  0  0
  129.3328  136.9341  159.6481 C   0  0  0  0  0  0  0  0  0  0  0  0
  130.3118  136.7804  160.8139 C   0  0  0  0  0  0  0  0  0  0  0  0
  130.6591  138.1410  161.3609 C   0  0  0  0  0  0  0  0  0  0  0  0
  130.4179  138.5039  162.6209 C   0  0  0  0  0  0  0  0  0  0  0  0
  130.8635  139.9271  162.9446 C   0  0  2  0  0  0  0  0  0  0  0  0
  130.6224  140.2095  163.9694 H   0  0  0  0  0  0  0  0  0  0  0  0
  130.1907  140.8279  161.9127 C   0  0  0  0  0  0  0  0  0  0  0  0
  130.4270  140.4670  160.6519 C   0  0  0  0  0  0  0  0  0  0  0  0
  131.3173  139.2341  160.5238 C   0  0  1  0  0  0  0  0  0  0  0  0
  132.6478  139.5757  161.2183 C   0  0  0  0  0  0  0  0  0  0  0  0
  132.3761  139.9904  162.6672 C   0  0  0  0  0  0  0  0  0  0  0  0
  127.6937  135.6385  158.3125 C   0  0  0  0  0  0  0  0  0  0  0  0
  126.4843  135.4305  158.9488 C   0  0  0  0  0  0  0  0  0  0  0  0
  125.3041  135.5134  158.2339 C   0  0  0  0  0  0  0  0  0  0  0  0
  125.3336  135.7955  156.8810 C   0  0  0  0  0  0  0  0  0  0  0  0
  126.5435  135.9983  156.2437 C   0  0  0  0  0  0  0  0  0  0  0  0
  127.7235  135.9197  156.9593 C   0  0  0  0  0  0  0  0  0  0  0  0
  130.4790  133.5483  156.4263 N   0  0  0  0  0  0  0  0  0  0  0  0
  130.9935  134.1468  155.8622 H   0  0  0  0  0  0  0  0  0  0  0  0
  131.3837  130.3759  155.0222 C   0  0  0  0  0  0  0  0  0  0  0  0
  131.7558  129.6905  153.8839 C   0  0  0  0  0  0  0  0  0  0  0  0
  130.2579  131.6287  151.5554 H   0  0  0  0  0  0  0  0  0  0  0  0
  129.5782  132.8556  153.5762 H   0  0  0  0  0  0  0  0  0  0  0  0
  129.0502  130.7573  157.2424 H   0  0  0  0  0  0  0  0  0  0  0  0
  130.8354  135.6495  158.0649 H   0  0  0  0  0  0  0  0  0  0  0  0
  128.8589  134.8499  159.9171 H   0  0  0  0  0  0  0  0  0  0  0  0
  128.4261  137.4276  159.9977 H   0  0  0  0  0  0  0  0  0  0  0  0
  129.7935  137.5344  158.8634 H   0  0  0  0  0  0  0  0  0  0  0  0
  131.2186  136.2870  160.4642 H   0  0  0  0  0  0  0  0  0  0  0  0
  129.8510  136.1802  161.5985 H   0  0  0  0  0  0  0  0  0  0  0  0
  129.9550  137.8505  163.3457 H   0  0  0  0  0  0  0  0  0  0  0  0
  129.5797  141.6777  162.1791 H   0  0  0  0  0  0  0  0  0  0  0  0
  130.0261  140.9971  159.8007 H   0  0  0  0  0  0  0  0  0  0  0  0
  131.4614  138.9382  159.4846 H   0  0  0  0  0  0  0  0  0  0  0  0
  133.1329  140.3967  160.6903 H   0  0  0  0  0  0  0  0  0  0  0  0
  133.2986  138.7015  161.2066 H   0  0  0  0  0  0  0  0  0  0  0  0
  132.7324  141.0083  162.8266 H   0  0  0  0  0  0  0  0  0  0  0  0
  132.8981  139.3130  163.3429 H   0  0  0  0  0  0  0  0  0  0  0  0
  126.4613  135.2065  160.0051 H   0  0  0  0  0  0  0  0  0  0  0  0
  124.3588  135.3552  158.7319 H   0  0  0  0  0  0  0  0  0  0  0  0
  124.4117  135.8577  156.3220 H   0  0  0  0  0  0  0  0  0  0  0  0
  126.5666  136.2188  155.1866 H   0  0  0  0  0  0  0  0  0  0  0  0
  128.6685  136.0781  156.4614 H   0  0  0  0  0  0  0  0  0  0  0  0
  131.7018  130.0254  155.9930 H   0  0  0  0  0  0  0  0  0  0  0  0
  132.3658  128.8030  153.9643 H   0  0  0  0  0  0  0  0  0  0  0  0
  1  2  1  0
  2 33  2  0
  2  3  1  0
  3  4  2  0
  3 34  1  0
  4  5  1  0
  4 35  1  0
  5  6  1  0
  5 32  2  0
  6 30  1  0
  6  7  2  0
  7  8  1  0
  7 36  1  0
  8  9  1  0
  8 10  1  0
 10 11  1  0
 10 30  2  0
 11 12  1  0
 11 37  1  0
 12 13  1  0
 12 24  1  0
 12 38  1  1
 13 14  1  0
 13 39  1  0
 13 40  1  0
 14 15  1  0
 14 41  1  0
 14 42  1  0
 15 21  1  0
 15 16  2  0
 16 17  1  0
 16 43  1  0
 17 18  1  1
 17 23  1  0
 17 19  1  0
 19 20  2  0
 19 44  1  0
 20 21  1  0
 20 45  1  0
 21 22  1  0
 21 46  1  6
 22 23  1  0
 22 47  1  0
 22 48  1  0
 23 49  1  0
 23 50  1  0
 24 29  1  0
 24 25  2  0
 25 26  1  0
 25 51  1  0
 26 27  2  0
 26 52  1  0
 27 28  1  0
 27 53  1  0
 28 29  2  0
 28 54  1  0
 29 55  1  0
 30 31  1  0
 32 33  1  0
 32 56  1  0
 33 57  1  0
M  CHG  1  30   1
M  END
>  <DOCK_score>  (1) 
-62.28952

>  <SMILES>  (1) 
Fc1ccc(-c2c[nH]c(NC(CCC3=C[C@@H]4C=CC3CC4)c3ccccc3)[nH+]2)cc1

$$$$
