CCc1ccc(-c2c[nH]c(Nc3cc(SCCc4ccc(C)cc4)c(O)cc3F)[nH+]2)cc1
     RDKit          3D

 59 62  0  0  1  0  0  0  0  0999 V2000
  130.2063  128.0320  151.7172 C   0  0  0  0  0  0  0  0  0  0  0  0
  131.2007  129.1927  151.7929 C   0  0  0  0  0  0  0  0  0  0  0  0
  130.9256  130.0096  153.0291 C   0  0  0  0  0  0  0  0  0  0  0  0
  131.5567  129.6928  154.2192 C   0  0  0  0  0  0  0  0  0  0  0  0
  131.3085  130.4376  155.3543 C   0  0  0  0  0  0  0  0  0  0  0  0
  130.4207  131.5106  155.3000 C   0  0  0  0  0  0  0  0  0  0  0  0
  130.1495  132.3147  156.5167 C   0  0  0  0  0  0  0  0  0  0  0  0
  129.6280  131.8512  157.6797 C   0  0  0  0  0  0  0  0  0  0  0  0
  129.5452  132.9228  158.5346 N   0  0  0  0  0  0  0  0  0  0  0  0
  129.2112  132.9069  159.4451 H   0  0  0  0  0  0  0  0  0  0  0  0
  130.0189  134.0113  157.8684 C   0  0  0  0  0  0  0  0  0  0  0  0
  130.1054  135.2954  158.3796 N   0  0  0  0  0  0  0  0  0  0  0  0
  129.1871  135.7284  159.3456 C   0  0  0  0  0  0  0  0  0  0  0  0
  129.5642  136.6780  160.2850 C   0  0  0  0  0  0  0  0  0  0  0  0
  128.6555  137.1020  161.2435 C   0  0  0  0  0  0  0  0  0  0  0  0
  129.1329  138.3029  162.4412 S   0  0  0  0  0  0  0  0  0  0  0  0
  130.5160  137.4991  163.2964 C   0  0  0  0  0  0  0  0  0  0  0  0
  131.0519  138.4297  164.3861 C   0  0  0  0  0  0  0  0  0  0  0  0
  132.2009  137.7618  165.0966 C   0  0  0  0  0  0  0  0  0  0  0  0
  133.4929  137.9355  164.6364 C   0  0  0  0  0  0  0  0  0  0  0  0
  134.5475  137.3272  165.2913 C   0  0  0  0  0  0  0  0  0  0  0  0
  134.3089  136.5361  166.3994 C   0  0  0  0  0  0  0  0  0  0  0  0
  135.4579  135.8680  167.1096 C   0  0  0  0  0  0  0  0  0  0  0  0
  133.0165  136.3583  166.8565 C   0  0  0  0  0  0  0  0  0  0  0  0
  131.9626  136.9712  166.2051 C   0  0  0  0  0  0  0  0  0  0  0  0
  127.3631  136.5813  161.2545 C   0  0  0  0  0  0  0  0  0  0  0  0
  126.4689  136.9995  162.1913 O   0  0  0  0  0  0  0  0  0  0  0  0
  126.9887  135.6377  160.3125 C   0  0  0  0  0  0  0  0  0  0  0  0
  127.8971  135.2109  159.3594 C   0  0  0  0  0  0  0  0  0  0  0  0
  127.5293  134.2907  158.4411 F   0  0  0  0  0  0  0  0  0  0  0  0
  130.3745  133.6444  156.6612 N   0  0  0  0  0  0  0  0  0  0  0  0
  130.7418  134.2299  155.9806 H   0  0  0  0  0  0  0  0  0  0  0  0
  129.7843  131.8217  154.0997 C   0  0  0  0  0  0  0  0  0  0  0  0
  130.0437  131.0730  152.9699 C   0  0  0  0  0  0  0  0  0  0  0  0
  129.1911  128.4263  151.6734 H   0  0  0  0  0  0  0  0  0  0  0  0
  130.4054  127.4410  150.8232 H   0  0  0  0  0  0  0  0  0  0  0  0
  130.3139  127.4023  152.6004 H   0  0  0  0  0  0  0  0  0  0  0  0
  131.0936  129.8216  150.9104 H   0  0  0  0  0  0  0  0  0  0  0  0
  132.2163  128.7977  151.8372 H   0  0  0  0  0  0  0  0  0  0  0  0
  132.2446  128.8611  154.2601 H   0  0  0  0  0  0  0  0  0  0  0  0
  131.8016  130.1897  156.2827 H   0  0  0  0  0  0  0  0  0  0  0  0
  129.3342  130.8339  157.8929 H   0  0  0  0  0  0  0  0  0  0  0  0
  130.8017  135.8952  158.0691 H   0  0  0  0  0  0  0  0  0  0  0  0
  130.5651  137.0834  160.2723 H   0  0  0  0  0  0  0  0  0  0  0  0
  131.3092  137.2829  162.5809 H   0  0  0  0  0  0  0  0  0  0  0  0
  130.1719  136.5693  163.7495 H   0  0  0  0  0  0  0  0  0  0  0  0
  130.2587  138.6459  165.1017 H   0  0  0  0  0  0  0  0  0  0  0  0
  131.3959  139.3595  163.9331 H   0  0  0  0  0  0  0  0  0  0  0  0
  133.6787  138.5497  163.7677 H   0  0  0  0  0  0  0  0  0  0  0  0
  135.5572  137.4664  164.9344 H   0  0  0  0  0  0  0  0  0  0  0  0
  135.6330  134.8849  166.6726 H   0  0  0  0  0  0  0  0  0  0  0  0
  136.3550  136.4778  167.0029 H   0  0  0  0  0  0  0  0  0  0  0  0
  135.2170  135.7579  168.1670 H   0  0  0  0  0  0  0  0  0  0  0  0
  132.8302  135.7402  167.7224 H   0  0  0  0  0  0  0  0  0  0  0  0
  130.9528  136.8318  166.5620 H   0  0  0  0  0  0  0  0  0  0  0  0
  125.5995  136.5824  162.1188 H   0  0  0  0  0  0  0  0  0  0  0  0
  125.9869  135.2343  160.3217 H   0  0  0  0  0  0  0  0  0  0  0  0
  129.0921  132.6494  154.0531 H   0  0  0  0  0  0  0  0  0  0  0  0
  129.5538  131.3153  152.0384 H   0  0  0  0  0  0  0  0  0  0  0  0
  1  2  1  0
  1 35  1  0
  1 36  1  0
  1 37  1  0
  2  3  1  0
  2 38  1  0
  2 39  1  0
  3 34  2  0
  3  4  1  0
  4  5  2  0
  4 40  1  0
  5  6  1  0
  5 41  1  0
  6  7  1  0
  6 33  2  0
  7 31  1  0
  7  8  2  0
  8  9  1  0
  8 42  1  0
  9 10  1  0
  9 11  1  0
 11 12  1  0
 11 31  2  0
 12 13  1  0
 12 43  1  0
 13 29  1  0
 13 14  2  0
 14 15  1  0
 14 44  1  0
 15 16  1  0
 15 26  2  0
 16 17  1  0
 17 18  1  0
 17 45  1  0
 17 46  1  0
 18 19  1  0
 18 47  1  0
 18 48  1  0
 19 25  1  0
 19 20  2  0
 20 21  1  0
 20 49  1  0
 21 22  2  0
 21 50  1  0
 22 23  1  0
 22 24  1  0
 23 51  1  0
 23 52  1  0
 23 53  1  0
 24 25  2  0
 24 54  1  0
 25 55  1  0
 26 27  1  0
 26 28  1  0
 27 56  1  0
 28 29  2  0
 28 57  1  0
 29 30  1  0
 31 32  1  0
 33 34  1  0
 33 58  1  0
 34 59  1  0
M  CHG  1  31   1
M  END
>  <DOCK_score>  (1) 
-56.885746

>  <SMILES>  (1) 
CCc1ccc(-c2c[nH]c(Nc3cc(SCCc4ccc(C)cc4)c(O)cc3F)[nH+]2)cc1

$$$$
