O[C@H]1C[C@@H]([NH+]=C(NC2CC=CC2)N[C@H](CC#CC2CC=CC2)Cc2ccccc2)C1
     RDKit          3D

 64 67  0  0  1  0  0  0  0  0999 V2000
  124.1550  135.0008  161.2816 O   0  0  0  0  0  0  0  0  0  0  0  0
  125.4510  134.9753  161.8828 C   0  0  1  0  0  0  0  0  0  0  0  0
  125.4449  135.3198  162.9169 H   0  0  0  0  0  0  0  0  0  0  0  0
  126.1978  133.6462  161.6807 C   0  0  0  0  0  0  0  0  0  0  0  0
  127.4688  134.4840  161.4630 C   0  0  1  0  0  0  0  0  0  0  0  0
  128.0163  134.6937  162.3820 H   0  0  0  0  0  0  0  0  0  0  0  0
  128.3294  133.9771  160.3912 N   0  0  0  0  0  0  0  0  0  0  0  0
  128.0723  133.1828  159.8974 H   0  0  0  0  0  0  0  0  0  0  0  0
  129.4406  134.5936  160.1012 C   0  0  0  0  0  0  0  0  0  0  0  0
  130.2483  134.1178  159.0952 N   0  0  0  0  0  0  0  0  0  0  0  0
  130.2794  132.6839  158.7971 C   0  0  0  0  0  0  0  0  0  0  0  0
  130.1946  131.8453  160.0935 C   0  0  0  0  0  0  0  0  0  0  0  0
  131.1097  130.6674  159.8489 C   0  0  0  0  0  0  0  0  0  0  0  0
  131.9093  130.8940  158.8425 C   0  0  0  0  0  0  0  0  0  0  0  0
  131.6619  132.2610  158.2481 C   0  0  0  0  0  0  0  0  0  0  0  0
  129.8052  135.7194  160.8011 N   0  0  0  0  0  0  0  0  0  0  0  0
  131.0541  136.4121  160.4748 C   0  0  2  0  0  0  0  0  0  0  0  0
  131.2785  136.2778  159.4165 H   0  0  0  0  0  0  0  0  0  0  0  0
  132.1935  135.8318  161.3152 C   0  0  0  0  0  0  0  0  0  0  0  0
  131.8907  136.0129  162.7441 C   0  0  0  0  0  0  0  0  0  0  0  0
  131.6493  136.1574  163.8840 C   0  0  0  0  0  0  0  0  0  0  0  0
  131.3464  136.3385  165.3130 C   0  0  0  0  0  0  0  0  0  0  0  0
  131.3839  137.8344  165.7031 C   0  0  0  0  0  0  0  0  0  0  0  0
  131.9886  137.8552  167.0877 C   0  0  0  0  0  0  0  0  0  0  0  0
  132.5848  136.7258  167.3572 C   0  0  0  0  0  0  0  0  0  0  0  0
  132.4772  135.7634  166.1973 C   0  0  0  0  0  0  0  0  0  0  0  0
  130.9046  137.9039  160.7793 C   0  0  0  0  0  0  0  0  0  0  0  0
  132.1895  138.6163  160.4438 C   0  0  0  0  0  0  0  0  0  0  0  0
  133.1716  138.7601  161.4060 C   0  0  0  0  0  0  0  0  0  0  0  0
  134.3522  139.4094  161.0969 C   0  0  0  0  0  0  0  0  0  0  0  0
  134.5465  139.9241  159.8286 C   0  0  0  0  0  0  0  0  0  0  0  0
  133.5622  139.7848  158.8680 C   0  0  0  0  0  0  0  0  0  0  0  0
  132.3837  139.1309  159.1756 C   0  0  0  0  0  0  0  0  0  0  0  0
  126.5427  135.6318  161.0213 C   0  0  0  0  0  0  0  0  0  0  0  0
  123.6898  135.8422  161.3853 H   0  0  0  0  0  0  0  0  0  0  0  0
  126.2326  133.0245  162.5754 H   0  0  0  0  0  0  0  0  0  0  0  0
  125.8798  133.0970  160.7945 H   0  0  0  0  0  0  0  0  0  0  0  0
  130.7975  134.7319  158.5830 H   0  0  0  0  0  0  0  0  0  0  0  0
  129.4835  132.4134  158.1032 H   0  0  0  0  0  0  0  0  0  0  0  0
  130.5448  132.4276  160.9458 H   0  0  0  0  0  0  0  0  0  0  0  0
  129.1724  131.5050  160.2593 H   0  0  0  0  0  0  0  0  0  0  0  0
  131.1023  129.7572  160.4302 H   0  0  0  0  0  0  0  0  0  0  0  0
  132.6506  130.1962  158.4820 H   0  0  0  0  0  0  0  0  0  0  0  0
  131.6368  132.2032  157.1600 H   0  0  0  0  0  0  0  0  0  0  0  0
  132.4301  132.9628  158.5728 H   0  0  0  0  0  0  0  0  0  0  0  0
  129.2354  136.0550  161.5107 H   0  0  0  0  0  0  0  0  0  0  0  0
  132.3000  134.7689  161.0982 H   0  0  0  0  0  0  0  0  0  0  0  0
  133.1229  136.3471  161.0724 H   0  0  0  0  0  0  0  0  0  0  0  0
  130.3853  135.8913  165.5669 H   0  0  0  0  0  0  0  0  0  0  0  0
  132.0098  138.3928  165.0069 H   0  0  0  0  0  0  0  0  0  0  0  0
  130.3752  138.2470  165.7232 H   0  0  0  0  0  0  0  0  0  0  0  0
  131.9344  138.6943  167.7654 H   0  0  0  0  0  0  0  0  0  0  0  0
  133.0886  136.5076  168.2873 H   0  0  0  0  0  0  0  0  0  0  0  0
  132.2117  134.7680  166.5533 H   0  0  0  0  0  0  0  0  0  0  0  0
  133.4141  135.7298  165.6413 H   0  0  0  0  0  0  0  0  0  0  0  0
  130.0930  138.3175  160.1806 H   0  0  0  0  0  0  0  0  0  0  0  0
  130.6803  138.0380  161.8374 H   0  0  0  0  0  0  0  0  0  0  0  0
  133.0179  138.3621  162.3980 H   0  0  0  0  0  0  0  0  0  0  0  0
  135.1209  139.5186  161.8474 H   0  0  0  0  0  0  0  0  0  0  0  0
  135.4670  140.4352  159.5884 H   0  0  0  0  0  0  0  0  0  0  0  0
  133.7139  140.1871  157.8773 H   0  0  0  0  0  0  0  0  0  0  0  0
  131.6147  139.0224  158.4252 H   0  0  0  0  0  0  0  0  0  0  0  0
  126.3192  135.6265  159.9545 H   0  0  0  0  0  0  0  0  0  0  0  0
  126.8555  136.6108  161.3844 H   0  0  0  0  0  0  0  0  0  0  0  0
  1  2  1  0
  1 35  1  0
  2  3  1  1
  2 34  1  0
  2  4  1  0
  4  5  1  0
  4 36  1  0
  4 37  1  0
  5  6  1  1
  5  7  1  0
  5 34  1  0
  7  8  1  0
  9  7  2  0
  9 10  1  0
  9 16  1  0
 10 11  1  0
 10 38  1  0
 11 15  1  0
 11 12  1  0
 11 39  1  0
 12 13  1  0
 12 40  1  0
 12 41  1  0
 13 14  2  0
 13 42  1  0
 14 15  1  0
 14 43  1  0
 15 44  1  0
 15 45  1  0
 16 17  1  0
 16 46  1  0
 17 18  1  6
 17 19  1  0
 17 27  1  0
 19 20  1  0
 19 47  1  0
 19 48  1  0
 20 21  3  0
 21 22  1  0
 22 26  1  0
 22 23  1  0
 22 49  1  0
 23 24  1  0
 23 50  1  0
 23 51  1  0
 24 25  2  0
 24 52  1  0
 25 26  1  0
 25 53  1  0
 26 54  1  0
 26 55  1  0
 27 28  1  0
 27 56  1  0
 27 57  1  0
 28 33  1  0
 28 29  2  0
 29 30  1  0
 29 58  1  0
 30 31  2  0
 30 59  1  0
 31 32  1  0
 31 60  1  0
 32 33  2  0
 32 61  1  0
 33 62  1  0
 34 63  1  0
 34 64  1  0
M  CHG  1   7   1
M  END
>  <DOCK_score>  (1) 
-44.504162

>  <SMILES>  (1) 
O[C@H]1C[C@@H]([NH+]=C(NC2CC=CC2)N[C@H](CC#CC2CC=CC2)Cc2ccccc2)C1

$$$$
