CC(CNc1ccc(C(F)(F)F)s1)(NC(=O)c1c[nH]nc1[C@H]1CCC[NH2+]C1)c1ccccc1
     RDKit          3D

 60 63  0  0  1  0  0  0  0  0999 V2000
  132.2121  136.8406  162.9497 C   0  0  0  0  0  0  0  0  0  0  0  0
  131.4019  137.9893  162.3457 C   0  0  2  0  0  0  0  0  0  0  0  0
  131.3110  139.1354  163.3551 C   0  0  0  0  0  0  0  0  0  0  0  0
  130.1839  140.0043  163.0075 N   0  0  0  0  0  0  0  0  0  0  0  0
  129.5008  140.6960  164.0095 C   0  0  0  0  0  0  0  0  0  0  0  0
  128.4548  141.5116  163.8115 C   0  0  0  0  0  0  0  0  0  0  0  0
  127.9418  142.0861  164.9634 C   0  0  0  0  0  0  0  0  0  0  0  0
  128.5645  141.7416  166.0897 C   0  0  0  0  0  0  0  0  0  0  0  0
  128.1974  142.2289  167.4675 C   0  0  0  0  0  0  0  0  0  0  0  0
  127.1039  143.0971  167.3793 F   0  0  0  0  0  0  0  0  0  0  0  0
  127.8616  141.1365  168.2745 F   0  0  0  0  0  0  0  0  0  0  0  0
  129.2859  142.9057  168.0282 F   0  0  0  0  0  0  0  0  0  0  0  0
  129.8746  140.6260  165.7267 S   0  0  0  0  0  0  0  0  0  0  0  0
  130.0538  137.5175  162.0199 N   0  0  0  0  0  0  0  0  0  0  0  0
  129.8869  136.5059  161.1449 C   0  0  0  0  0  0  0  0  0  0  0  0
  130.8553  135.9849  160.6261 O   0  0  0  0  0  0  0  0  0  0  0  0
  128.5299  136.0351  160.8126 C   0  0  0  0  0  0  0  0  0  0  0  0
  127.3445  136.5276  161.3203 C   0  0  0  0  0  0  0  0  0  0  0  0
  126.3454  135.8273  160.7593 N   0  0  0  0  0  0  0  0  0  0  0  0
  125.3988  135.9561  160.9278 H   0  0  0  0  0  0  0  0  0  0  0  0
  126.9003  134.8768  159.8953 N   0  0  0  0  0  0  0  0  0  0  0  0
  128.1995  134.9915  159.9192 C   0  0  0  0  0  0  0  0  0  0  0  0
  129.1768  134.1575  159.1316 C   0  0  1  0  0  0  0  0  0  0  0  0
  130.1119  134.0727  159.6853 H   0  0  0  0  0  0  0  0  0  0  0  0
  128.5898  132.7617  158.9026 C   0  0  0  0  0  0  0  0  0  0  0  0
  129.5553  131.9485  158.0358 C   0  0  0  0  0  0  0  0  0  0  0  0
  129.8058  132.6946  156.7234 C   0  0  0  0  0  0  0  0  0  0  0  0
  130.3913  134.0101  157.0085 N   0  0  0  0  0  0  0  0  0  0  0  0
  131.2399  133.8911  157.5413 H   0  0  0  0  0  0  0  0  0  0  0  0
  130.6035  134.4779  156.1400 H   0  0  0  0  0  0  0  0  0  0  0  0
  129.4423  134.8223  157.7792 C   0  0  0  0  0  0  0  0  0  0  0  0
  132.0801  138.4772  161.0914 C   0  0  0  0  0  0  0  0  0  0  0  0
  133.4541  138.3866  160.9688 C   0  0  0  0  0  0  0  0  0  0  0  0
  134.0757  138.8300  159.8165 C   0  0  0  0  0  0  0  0  0  0  0  0
  133.3246  139.3723  158.7907 C   0  0  0  0  0  0  0  0  0  0  0  0
  131.9510  139.4678  158.9155 C   0  0  0  0  0  0  0  0  0  0  0  0
  131.3289  139.0204  160.0659 C   0  0  0  0  0  0  0  0  0  0  0  0
  132.2768  136.0240  162.2306 H   0  0  0  0  0  0  0  0  0  0  0  0
  133.2150  137.1917  163.1921 H   0  0  0  0  0  0  0  0  0  0  0  0
  131.7215  136.4878  163.8569 H   0  0  0  0  0  0  0  0  0  0  0  0
  131.1607  138.7278  164.3548 H   0  0  0  0  0  0  0  0  0  0  0  0
  132.2352  139.7129  163.3334 H   0  0  0  0  0  0  0  0  0  0  0  0
  129.9124  140.0990  162.0812 H   0  0  0  0  0  0  0  0  0  0  0  0
  128.0444  141.7050  162.8314 H   0  0  0  0  0  0  0  0  0  0  0  0
  127.1003  142.7630  164.9492 H   0  0  0  0  0  0  0  0  0  0  0  0
  129.2812  137.9331  162.4337 H   0  0  0  0  0  0  0  0  0  0  0  0
  127.2396  137.3302  162.0353 H   0  0  0  0  0  0  0  0  0  0  0  0
  128.4521  132.2623  159.8617 H   0  0  0  0  0  0  0  0  0  0  0  0
  127.6292  132.8491  158.3949 H   0  0  0  0  0  0  0  0  0  0  0  0
  130.4986  131.8177  158.5660 H   0  0  0  0  0  0  0  0  0  0  0  0
  129.1192  130.9725  157.8227 H   0  0  0  0  0  0  0  0  0  0  0  0
  130.4928  132.1182  156.1038 H   0  0  0  0  0  0  0  0  0  0  0  0
  128.8618  132.8249  156.1942 H   0  0  0  0  0  0  0  0  0  0  0  0
  128.5064  134.9075  157.2268 H   0  0  0  0  0  0  0  0  0  0  0  0
  129.8604  135.8161  157.9392 H   0  0  0  0  0  0  0  0  0  0  0  0
  134.0413  137.9663  161.7717 H   0  0  0  0  0  0  0  0  0  0  0  0
  135.1486  138.7553  159.7188 H   0  0  0  0  0  0  0  0  0  0  0  0
  133.8102  139.7215  157.8914 H   0  0  0  0  0  0  0  0  0  0  0  0
  131.3640  139.8915  158.1141 H   0  0  0  0  0  0  0  0  0  0  0  0
  130.2559  139.0949  160.1636 H   0  0  0  0  0  0  0  0  0  0  0  0
  1 38  1  0
  1 39  1  0
  1 40  1  0
  2  1  1  0
  2  3  1  0
  2 14  1  6
  2 32  1  0
  3  4  1  0
  3 41  1  0
  3 42  1  0
  4  5  1  0
  4 43  1  0
  5 13  1  0
  5  6  2  0
  6  7  1  0
  6 44  1  0
  7  8  2  0
  7 45  1  0
  8  9  1  0
  8 13  1  0
  9 10  1  0
  9 11  1  0
  9 12  1  0
 14 15  1  0
 14 46  1  0
 15 16  2  0
 15 17  1  0
 17 22  1  0
 17 18  2  0
 18 19  1  0
 18 47  1  0
 19 20  1  0
 19 21  1  0
 21 22  2  0
 22 23  1  0
 23 24  1  1
 23 31  1  0
 23 25  1  0
 25 26  1  0
 25 48  1  0
 25 49  1  0
 26 27  1  0
 26 50  1  0
 26 51  1  0
 27 28  1  0
 27 52  1  0
 27 53  1  0
 28 29  1  0
 28 30  1  0
 28 31  1  0
 31 54  1  0
 31 55  1  0
 32 37  1  0
 32 33  2  0
 33 34  1  0
 33 56  1  0
 34 35  2  0
 34 57  1  0
 35 36  1  0
 35 58  1  0
 36 37  2  0
 36 59  1  0
 37 60  1  0
M  CHG  1  28   1
M  END
>  <DOCK_score>  (1) 
-43.598862

>  <SMILES>  (1) 
CC(CNc1ccc(C(F)(F)F)s1)(NC(=O)c1c[nH]nc1[C@H]1CCC[NH2+]C1)c1ccccc1

$$$$
