Clc1ccccc1Nc1ccc(C2=CC[N@H+](CC3=Cc4ccccc4OC3)CC2)cc1
     RDKit          3D

 57 61  0  0  1  0  0  0  0  0999 V2000
  124.9989  139.5033  163.7412 Cl  0  0  0  0  0  0  0  0  0  0  0  0
  126.0223  138.4085  164.6172 C   0  0  0  0  0  0  0  0  0  0  0  0
  126.5075  138.7610  165.8624 C   0  0  0  0  0  0  0  0  0  0  0  0
  127.3278  137.8916  166.5577 C   0  0  0  0  0  0  0  0  0  0  0  0
  127.6606  136.6647  166.0130 C   0  0  0  0  0  0  0  0  0  0  0  0
  127.1749  136.3033  164.7718 C   0  0  0  0  0  0  0  0  0  0  0  0
  126.3509  137.1739  164.0694 C   0  0  0  0  0  0  0  0  0  0  0  0
  125.8581  136.8113  162.8130 N   0  0  0  0  0  0  0  0  0  0  0  0
  126.5980  135.9587  161.9925 C   0  0  0  0  0  0  0  0  0  0  0  0
  126.0576  134.7426  161.5884 C   0  0  0  0  0  0  0  0  0  0  0  0
  126.7857  133.8987  160.7785 C   0  0  0  0  0  0  0  0  0  0  0  0
  128.0672  134.2655  160.3632 C   0  0  0  0  0  0  0  0  0  0  0  0
  128.8505  133.3628  159.4947 C   0  0  0  0  0  0  0  0  0  0  0  0
  128.2104  132.5730  158.6589 C   0  0  0  0  0  0  0  0  0  0  0  0
  128.9127  131.6159  157.7395 C   0  0  0  0  0  0  0  0  0  0  0  0
  130.3246  131.9887  157.5943 N   0  0  2  0  0  0  0  0  0  0  0  0
  130.3931  132.8670  157.1022 H   0  0  0  0  0  0  0  0  0  0  0  0
  131.0333  130.9462  156.8399 C   0  0  0  0  0  0  0  0  0  0  0  0
  130.7680  131.1236  155.3671 C   0  0  0  0  0  0  0  0  0  0  0  0
  130.7634  130.0651  154.5627 C   0  0  0  0  0  0  0  0  0  0  0  0
  130.5361  130.2832  153.1185 C   0  0  0  0  0  0  0  0  0  0  0  0
  130.2361  129.2277  152.2641 C   0  0  0  0  0  0  0  0  0  0  0  0
  130.0179  129.4776  150.9231 C   0  0  0  0  0  0  0  0  0  0  0  0
  130.0944  130.7694  150.4317 C   0  0  0  0  0  0  0  0  0  0  0  0
  130.3974  131.8245  151.2736 C   0  0  0  0  0  0  0  0  0  0  0  0
  130.6262  131.5884  152.6167 C   0  0  0  0  0  0  0  0  0  0  0  0
  130.9625  132.5959  153.4624 O   0  0  0  0  0  0  0  0  0  0  0  0
  130.5031  132.4986  154.8130 C   0  0  0  0  0  0  0  0  0  0  0  0
  130.9239  132.1254  158.9312 C   0  0  0  0  0  0  0  0  0  0  0  0
  130.3509  133.3789  159.5974 C   0  0  0  0  0  0  0  0  0  0  0  0
  128.6094  135.4843  160.7751 C   0  0  0  0  0  0  0  0  0  0  0  0
  127.8740  136.3268  161.5801 C   0  0  0  0  0  0  0  0  0  0  0  0
  126.2497  139.7183  166.2906 H   0  0  0  0  0  0  0  0  0  0  0  0
  127.7093  138.1713  167.5286 H   0  0  0  0  0  0  0  0  0  0  0  0
  128.3008  135.9881  166.5595 H   0  0  0  0  0  0  0  0  0  0  0  0
  127.4350  135.3448  164.3476 H   0  0  0  0  0  0  0  0  0  0  0  0
  125.0017  137.1525  162.5107 H   0  0  0  0  0  0  0  0  0  0  0  0
  125.0664  134.4593  161.9102 H   0  0  0  0  0  0  0  0  0  0  0  0
  126.3657  132.9542  160.4653 H   0  0  0  0  0  0  0  0  0  0  0  0
  127.1315  132.6154  158.6329 H   0  0  0  0  0  0  0  0  0  0  0  0
  128.4319  131.6368  156.7616 H   0  0  0  0  0  0  0  0  0  0  0  0
  128.8464  130.6080  158.1492 H   0  0  0  0  0  0  0  0  0  0  0  0
  132.1039  131.0257  157.0285 H   0  0  0  0  0  0  0  0  0  0  0  0
  130.6805  129.9649  157.1571 H   0  0  0  0  0  0  0  0  0  0  0  0
  130.9221  129.0713  154.9544 H   0  0  0  0  0  0  0  0  0  0  0  0
  130.1750  128.2194  152.6462 H   0  0  0  0  0  0  0  0  0  0  0  0
  129.7864  128.6613  150.2551 H   0  0  0  0  0  0  0  0  0  0  0  0
  129.9165  130.9549  149.3829 H   0  0  0  0  0  0  0  0  0  0  0  0
  130.4555  132.8297  150.8828 H   0  0  0  0  0  0  0  0  0  0  0  0
  129.4321  132.6984  154.8467 H   0  0  0  0  0  0  0  0  0  0  0  0
  131.0242  133.2371  155.4221 H   0  0  0  0  0  0  0  0  0  0  0  0
  130.6820  131.2487  159.5319 H   0  0  0  0  0  0  0  0  0  0  0  0
  132.0058  132.2220  158.8392 H   0  0  0  0  0  0  0  0  0  0  0  0
  130.7396  134.2659  159.0971 H   0  0  0  0  0  0  0  0  0  0  0  0
  130.6427  133.3975  160.6476 H   0  0  0  0  0  0  0  0  0  0  0  0
  129.6023  135.7686  160.4592 H   0  0  0  0  0  0  0  0  0  0  0  0
  128.2910  137.2720  161.8951 H   0  0  0  0  0  0  0  0  0  0  0  0
  1  2  1  0
  2  7  2  0
  2  3  1  0
  3  4  2  0
  3 33  1  0
  4  5  1  0
  4 34  1  0
  5  6  2  0
  5 35  1  0
  6  7  1  0
  6 36  1  0
  7  8  1  0
  8  9  1  0
  8 37  1  0
  9 32  1  0
  9 10  2  0
 10 11  1  0
 10 38  1  0
 11 12  2  0
 11 39  1  0
 12 13  1  0
 12 31  1  0
 13 30  1  0
 13 14  2  0
 14 15  1  0
 14 40  1  0
 15 16  1  0
 15 41  1  0
 15 42  1  0
 16 17  1  6
 16 18  1  0
 16 29  1  0
 18 19  1  0
 18 43  1  0
 18 44  1  0
 19 28  1  0
 19 20  2  0
 20 21  1  0
 20 45  1  0
 21 26  2  0
 21 22  1  0
 22 23  2  0
 22 46  1  0
 23 24  1  0
 23 47  1  0
 24 25  2  0
 24 48  1  0
 25 26  1  0
 25 49  1  0
 26 27  1  0
 27 28  1  0
 28 50  1  0
 28 51  1  0
 29 30  1  0
 29 52  1  0
 29 53  1  0
 30 54  1  0
 30 55  1  0
 31 32  2  0
 31 56  1  0
 32 57  1  0
M  CHG  1  16   1
M  END
>  <DOCK_score>  (1) 
-43.793755

>  <SMILES>  (1) 
Clc1ccccc1Nc1ccc(C2=CC[N@H+](CC3=Cc4ccccc4OC3)CC2)cc1

$$$$
