CN(C[C@H]1CCCC[N@@H+]1Cc1ccc2nc[nH]c2c1)S(=O)(=O)c1cccnc1
     RDKit          3D

 54 57  0  0  1  0  0  0  0  0999 V2000
  127.3718  134.7202  158.7053 C   0  0  0  0  0  0  0  0  0  0  0  0
  128.1641  135.6112  159.5565 N   0  0  0  0  0  0  0  0  0  0  0  0
  129.4447  136.1360  159.0758 C   0  0  0  0  0  0  0  0  0  0  0  0
  130.5650  135.6876  160.0163 C   0  0  1  0  0  0  0  0  0  0  0  0
  130.2177  135.7453  161.0479 H   0  0  0  0  0  0  0  0  0  0  0  0
  130.9561  134.2444  159.6911 C   0  0  0  0  0  0  0  0  0  0  0  0
  132.0771  133.8000  160.6349 C   0  0  0  0  0  0  0  0  0  0  0  0
  133.2578  134.7658  160.4995 C   0  0  0  0  0  0  0  0  0  0  0  0
  132.7816  136.1897  160.7947 C   0  0  0  0  0  0  0  0  0  0  0  0
  131.7291  136.5646  159.8428 N   0  0  2  0  0  0  0  0  0  0  0  0
  132.0804  136.4734  158.9014 H   0  0  0  0  0  0  0  0  0  0  0  0
  131.3304  137.9581  160.0820 C   0  0  0  0  0  0  0  0  0  0  0  0
  132.5524  138.7843  160.3910 C   0  0  0  0  0  0  0  0  0  0  0  0
  133.2488  139.3971  159.3590 C   0  0  0  0  0  0  0  0  0  0  0  0
  134.3557  140.1543  159.6189 C   0  0  0  0  0  0  0  0  0  0  0  0
  134.8017  140.3072  160.9344 C   0  0  0  0  0  0  0  0  0  0  0  0
  135.8418  140.9726  161.4991 N   0  0  0  0  0  0  0  0  0  0  0  0
  135.8229  140.8003  162.7885 C   0  0  0  0  0  0  0  0  0  0  0  0
  134.7703  140.0133  163.1397 N   0  0  0  0  0  0  0  0  0  0  0  0
  134.5348  139.7357  164.0387 H   0  0  0  0  0  0  0  0  0  0  0  0
  134.1000  139.6825  161.9790 C   0  0  0  0  0  0  0  0  0  0  0  0
  132.9737  138.9212  161.6965 C   0  0  0  0  0  0  0  0  0  0  0  0
  127.6123  136.0251  161.0619 S   0  0  0  0  0  0  0  0  0  0  0  0
  128.2432  137.2536  161.3967 O   0  0  0  0  0  0  0  0  0  0  0  0
  126.2014  135.8589  161.0319 O   0  0  0  0  0  0  0  0  0  0  0  0
  128.2308  134.8237  162.1926 C   0  0  0  0  0  0  0  0  0  0  0  0
  127.7424  133.5260  162.1752 C   0  0  0  0  0  0  0  0  0  0  0  0
  128.2617  132.6132  163.0801 C   0  0  0  0  0  0  0  0  0  0  0  0
  129.2346  133.0269  163.9708 C   0  0  0  0  0  0  0  0  0  0  0  0
  129.6718  134.2708  163.9621 N   0  0  0  0  0  0  0  0  0  0  0  0
  129.2046  135.1643  163.1120 C   0  0  0  0  0  0  0  0  0  0  0  0
  126.6272  135.3029  158.1630 H   0  0  0  0  0  0  0  0  0  0  0  0
  128.0282  134.2178  157.9947 H   0  0  0  0  0  0  0  0  0  0  0  0
  126.8704  133.9767  159.3250 H   0  0  0  0  0  0  0  0  0  0  0  0
  129.6390  135.7570  158.0724 H   0  0  0  0  0  0  0  0  0  0  0  0
  129.4049  137.2250  159.0514 H   0  0  0  0  0  0  0  0  0  0  0  0
  130.0909  133.5945  159.8223 H   0  0  0  0  0  0  0  0  0  0  0  0
  131.3036  134.1850  158.6597 H   0  0  0  0  0  0  0  0  0  0  0  0
  132.3983  132.7925  160.3705 H   0  0  0  0  0  0  0  0  0  0  0  0
  131.7140  133.8102  161.6625 H   0  0  0  0  0  0  0  0  0  0  0  0
  133.6532  134.7173  159.4848 H   0  0  0  0  0  0  0  0  0  0  0  0
  134.0385  134.4890  161.2079 H   0  0  0  0  0  0  0  0  0  0  0  0
  133.6199  136.8799  160.6994 H   0  0  0  0  0  0  0  0  0  0  0  0
  132.3865  136.2366  161.8096 H   0  0  0  0  0  0  0  0  0  0  0  0
  130.8398  138.3535  159.1926 H   0  0  0  0  0  0  0  0  0  0  0  0
  130.6413  137.9992  160.9256 H   0  0  0  0  0  0  0  0  0  0  0  0
  132.9098  139.2779  158.3405 H   0  0  0  0  0  0  0  0  0  0  0  0
  134.8880  140.6302  158.8085 H   0  0  0  0  0  0  0  0  0  0  0  0
  136.5385  141.2210  163.4796 H   0  0  0  0  0  0  0  0  0  0  0  0
  132.4302  138.4392  162.4956 H   0  0  0  0  0  0  0  0  0  0  0  0
  126.9784  133.2323  161.4706 H   0  0  0  0  0  0  0  0  0  0  0  0
  127.9073  131.5930  163.0924 H   0  0  0  0  0  0  0  0  0  0  0  0
  129.6408  132.3232  164.6822 H   0  0  0  0  0  0  0  0  0  0  0  0
  129.5873  136.1740  163.1349 H   0  0  0  0  0  0  0  0  0  0  0  0
  1  2  1  0
  1 32  1  0
  1 33  1  0
  1 34  1  0
  2  3  1  0
  2 23  1  0
  3  4  1  0
  3 35  1  0
  3 36  1  0
  4  5  1  1
  4 10  1  0
  4  6  1  0
  6  7  1  0
  6 37  1  0
  6 38  1  0
  7  8  1  0
  7 39  1  0
  7 40  1  0
  8  9  1  0
  8 41  1  0
  8 42  1  0
  9 10  1  0
  9 43  1  0
  9 44  1  0
 10 11  1  6
 10 12  1  0
 12 13  1  0
 12 45  1  0
 12 46  1  0
 13 22  1  0
 13 14  2  0
 14 15  1  0
 14 47  1  0
 15 16  2  0
 15 48  1  0
 16 21  1  0
 16 17  1  0
 17 18  2  0
 18 19  1  0
 18 49  1  0
 19 20  1  0
 19 21  1  0
 21 22  2  0
 22 50  1  0
 23 24  2  0
 23 25  2  0
 23 26  1  0
 26 31  1  0
 26 27  2  0
 27 28  1  0
 27 51  1  0
 28 29  2  0
 28 52  1  0
 29 30  1  0
 29 53  1  0
 30 31  2  0
 31 54  1  0
M  CHG  1  10   1
M  END
>  <DOCK_score>  (1) 
-43.757114

>  <SMILES>  (1) 
CN(C[C@H]1CCCC[N@@H+]1Cc1ccc2nc[nH]c2c1)S(=O)(=O)c1cccnc1

$$$$
