Cc1ccc2[nH]cc(C[NH2+][C@@H]3CCC=C3NCc3cnn(-c4ccc(Br)cc4)c3)c2c1
     RDKit          3D

 58 62  0  0  1  0  0  0  0  0999 V2000
  135.9559  138.5236  164.9812 C   0  0  0  0  0  0  0  0  0  0  0  0
  135.3283  138.9859  163.6915 C   0  0  0  0  0  0  0  0  0  0  0  0
  135.2678  140.3425  163.4024 C   0  0  0  0  0  0  0  0  0  0  0  0
  134.6980  140.7863  162.2295 C   0  0  0  0  0  0  0  0  0  0  0  0
  134.1772  139.8679  161.3235 C   0  0  0  0  0  0  0  0  0  0  0  0
  133.5609  139.9899  160.0983 N   0  0  0  0  0  0  0  0  0  0  0  0
  133.3837  140.8288  159.6449 H   0  0  0  0  0  0  0  0  0  0  0  0
  133.2409  138.7511  159.6132 C   0  0  0  0  0  0  0  0  0  0  0  0
  133.6196  137.8055  160.4875 C   0  0  0  0  0  0  0  0  0  0  0  0
  133.4447  136.3170  160.3296 C   0  0  0  0  0  0  0  0  0  0  0  0
  132.0865  136.0319  159.8481 N   0  0  0  0  0  0  0  0  0  0  0  0
  131.9694  135.0353  159.7424 H   0  0  0  0  0  0  0  0  0  0  0  0
  131.9437  136.4836  158.9572 H   0  0  0  0  0  0  0  0  0  0  0  0
  131.1067  136.5401  160.8173 C   0  0  2  0  0  0  0  0  0  0  0  0
  131.2209  137.6170  160.9424 H   0  0  0  0  0  0  0  0  0  0  0  0
  131.2701  135.8203  162.1758 C   0  0  0  0  0  0  0  0  0  0  0  0
  129.8014  135.7093  162.6459 C   0  0  0  0  0  0  0  0  0  0  0  0
  128.9855  135.7496  161.3748 C   0  0  0  0  0  0  0  0  0  0  0  0
  129.7024  136.2060  160.3705 C   0  0  0  0  0  0  0  0  0  0  0  0
  129.2313  136.3605  159.0727 N   0  0  0  0  0  0  0  0  0  0  0  0
  128.1842  135.4717  158.5630 C   0  0  0  0  0  0  0  0  0  0  0  0
  128.7980  134.1607  158.1440 C   0  0  0  0  0  0  0  0  0  0  0  0
  128.9669  133.0341  158.9562 C   0  0  0  0  0  0  0  0  0  0  0  0
  129.5334  132.0951  158.2417 N   0  0  0  0  0  0  0  0  0  0  0  0
  129.7436  132.5945  156.9499 N   0  0  0  0  0  0  0  0  0  0  0  0
  130.3278  131.8994  155.8816 C   0  0  0  0  0  0  0  0  0  0  0  0
  130.4709  132.5162  154.6461 C   0  0  0  0  0  0  0  0  0  0  0  0
  131.0512  131.8310  153.5966 C   0  0  0  0  0  0  0  0  0  0  0  0
  131.4801  130.5275  153.7729 C   0  0  0  0  0  0  0  0  0  0  0  0
  132.2681  129.5901  152.3319 Br  0  0  0  0  0  0  0  0  0  0  0  0
  131.3339  129.9087  155.0017 C   0  0  0  0  0  0  0  0  0  0  0  0
  130.7591  130.5913  156.0558 C   0  0  0  0  0  0  0  0  0  0  0  0
  129.2777  133.8634  156.9141 C   0  0  0  0  0  0  0  0  0  0  0  0
  134.2410  138.4946  161.6210 C   0  0  0  0  0  0  0  0  0  0  0  0
  134.8227  138.0667  162.8162 C   0  0  0  0  0  0  0  0  0  0  0  0
  135.1930  138.4706  165.7579 H   0  0  0  0  0  0  0  0  0  0  0  0
  136.3973  137.5375  164.8375 H   0  0  0  0  0  0  0  0  0  0  0  0
  136.7313  139.2285  165.2811 H   0  0  0  0  0  0  0  0  0  0  0  0
  135.6711  141.0571  164.1047 H   0  0  0  0  0  0  0  0  0  0  0  0
  134.6560  141.8437  162.0137 H   0  0  0  0  0  0  0  0  0  0  0  0
  132.7538  138.5623  158.6679 H   0  0  0  0  0  0  0  0  0  0  0  0
  133.5990  135.8289  161.2919 H   0  0  0  0  0  0  0  0  0  0  0  0
  134.1718  135.9399  159.6104 H   0  0  0  0  0  0  0  0  0  0  0  0
  131.7139  134.8334  162.0443 H   0  0  0  0  0  0  0  0  0  0  0  0
  131.8578  136.4220  162.8688 H   0  0  0  0  0  0  0  0  0  0  0  0
  129.6408  134.7673  163.1702 H   0  0  0  0  0  0  0  0  0  0  0  0
  129.5441  136.5511  163.2889 H   0  0  0  0  0  0  0  0  0  0  0  0
  127.9522  135.4445  161.3004 H   0  0  0  0  0  0  0  0  0  0  0  0
  129.5956  137.0567  158.5041 H   0  0  0  0  0  0  0  0  0  0  0  0
  127.4461  135.2938  159.3451 H   0  0  0  0  0  0  0  0  0  0  0  0
  127.6991  135.9366  157.7047 H   0  0  0  0  0  0  0  0  0  0  0  0
  128.6797  132.9533  159.9942 H   0  0  0  0  0  0  0  0  0  0  0  0
  130.1326  133.5325  154.5068 H   0  0  0  0  0  0  0  0  0  0  0  0
  131.1665  132.3118  152.6364 H   0  0  0  0  0  0  0  0  0  0  0  0
  131.6697  128.8912  155.1368 H   0  0  0  0  0  0  0  0  0  0  0  0
  130.6454  130.1079  157.0149 H   0  0  0  0  0  0  0  0  0  0  0  0
  129.2890  134.5222  156.0583 H   0  0  0  0  0  0  0  0  0  0  0  0
  134.8731  137.0131  163.0477 H   0  0  0  0  0  0  0  0  0  0  0  0
  1  2  1  0
  1 36  1  0
  1 37  1  0
  1 38  1  0
  2 35  2  0
  2  3  1  0
  3  4  2  0
  3 39  1  0
  4  5  1  0
  4 40  1  0
  5 34  2  0
  5  6  1  0
  6  7  1  0
  6  8  1  0
  8  9  2  0
  8 41  1  0
  9 10  1  0
  9 34  1  0
 10 11  1  0
 10 42  1  0
 10 43  1  0
 11 12  1  0
 11 13  1  0
 11 14  1  0
 14 15  1  1
 14 19  1  0
 14 16  1  0
 16 17  1  0
 16 44  1  0
 16 45  1  0
 17 18  1  0
 17 46  1  0
 17 47  1  0
 18 19  2  0
 18 48  1  0
 19 20  1  0
 20 21  1  0
 20 49  1  0
 21 22  1  0
 21 50  1  0
 21 51  1  0
 22 33  2  0
 22 23  1  0
 23 24  2  0
 23 52  1  0
 24 25  1  0
 25 26  1  0
 25 33  1  0
 26 32  1  0
 26 27  2  0
 27 28  1  0
 27 53  1  0
 28 29  2  0
 28 54  1  0
 29 30  1  0
 29 31  1  0
 31 32  2  0
 31 55  1  0
 32 56  1  0
 33 57  1  0
 34 35  1  0
 35 58  1  0
M  CHG  1  11   1
M  END
>  <DOCK_score>  (1) 
-58.332767

>  <SMILES>  (1) 
Cc1ccc2[nH]cc(C[NH2+][C@@H]3CCC=C3NCc3cnn(-c4ccc(Br)cc4)c3)c2c1

$$$$
