BrCc1c(SC2CC2)cccc1N1CC[NH+](C(c2ccccc2)c2ccccc2)CC1
     RDKit          3D

 61 65  0  0  0  0  0  0  0  0999 V2000
  134.9652  134.9840  163.8011 Br  0  0  0  0  0  0  0  0  0  0  0  0
  133.9254  136.6352  163.5610 C   0  0  0  0  0  0  0  0  0  0  0  0
  134.3922  137.3464  162.3172 C   0  0  0  0  0  0  0  0  0  0  0  0
  135.4214  138.2757  162.3917 C   0  0  0  0  0  0  0  0  0  0  0  0
  136.1840  138.6249  163.9413 S   0  0  0  0  0  0  0  0  0  0  0  0
  137.5405  137.4226  164.0087 C   0  0  0  0  0  0  0  0  0  0  0  0
  137.4372  136.2979  165.0408 C   0  0  0  0  0  0  0  0  0  0  0  0
  138.4373  137.4380  165.2481 C   0  0  0  0  0  0  0  0  0  0  0  0
  135.8452  138.9343  161.2433 C   0  0  0  0  0  0  0  0  0  0  0  0
  135.2479  138.6607  160.0280 C   0  0  0  0  0  0  0  0  0  0  0  0
  134.2277  137.7325  159.9496 C   0  0  0  0  0  0  0  0  0  0  0  0
  133.7984  137.0704  161.0940 C   0  0  0  0  0  0  0  0  0  0  0  0
  132.7666  136.1325  161.0136 N   0  0  0  0  0  0  0  0  0  0  0  0
  131.5117  136.7657  160.5840 C   0  0  0  0  0  0  0  0  0  0  0  0
  130.3958  135.7188  160.5662 C   0  0  0  0  0  0  0  0  0  0  0  0
  130.7571  134.6333  159.6449 N   0  0  0  0  0  0  0  0  0  0  0  0
  130.8931  135.0098  158.7187 H   0  0  0  0  0  0  0  0  0  0  0  0
  129.6775  133.6377  159.6144 C   0  0  0  0  0  0  0  0  0  0  0  0
  128.4037  134.2920  159.1451 C   0  0  0  0  0  0  0  0  0  0  0  0
  127.1812  133.8183  159.5830 C   0  0  0  0  0  0  0  0  0  0  0  0
  126.0130  134.4215  159.1562 C   0  0  0  0  0  0  0  0  0  0  0  0
  126.0664  135.4917  158.2839 C   0  0  0  0  0  0  0  0  0  0  0  0
  127.2891  135.9625  157.8411 C   0  0  0  0  0  0  0  0  0  0  0  0
  128.4576  135.3625  158.2720 C   0  0  0  0  0  0  0  0  0  0  0  0
  130.0479  132.5238  158.6693 C   0  0  0  0  0  0  0  0  0  0  0  0
  129.5843  131.2415  158.8967 C   0  0  0  0  0  0  0  0  0  0  0  0
  129.9201  130.2208  158.0270 C   0  0  0  0  0  0  0  0  0  0  0  0
  130.7281  130.4803  156.9359 C   0  0  0  0  0  0  0  0  0  0  0  0
  131.1961  131.7616  156.7114 C   0  0  0  0  0  0  0  0  0  0  0  0
  130.8559  132.7833  157.5781 C   0  0  0  0  0  0  0  0  0  0  0  0
  131.9989  133.9949  160.1007 C   0  0  0  0  0  0  0  0  0  0  0  0
  133.1282  135.0275  160.1147 C   0  0  0  0  0  0  0  0  0  0  0  0
  134.0680  137.2834  164.4254 H   0  0  0  0  0  0  0  0  0  0  0  0
  132.8683  136.3877  163.4629 H   0  0  0  0  0  0  0  0  0  0  0  0
  138.0076  137.1866  163.0525 H   0  0  0  0  0  0  0  0  0  0  0  0
  136.5541  136.2805  165.6795 H   0  0  0  0  0  0  0  0  0  0  0  0
  137.8366  135.3222  164.7639 H   0  0  0  0  0  0  0  0  0  0  0  0
  139.4944  137.2119  165.1073 H   0  0  0  0  0  0  0  0  0  0  0  0
  138.2123  138.1707  166.0231 H   0  0  0  0  0  0  0  0  0  0  0  0
  136.6425  139.6606  161.3011 H   0  0  0  0  0  0  0  0  0  0  0  0
  135.5796  139.1733  159.1372 H   0  0  0  0  0  0  0  0  0  0  0  0
  133.7628  137.5212  158.9980 H   0  0  0  0  0  0  0  0  0  0  0  0
  131.6375  137.1804  159.5838 H   0  0  0  0  0  0  0  0  0  0  0  0
  131.2506  137.5638  161.2789 H   0  0  0  0  0  0  0  0  0  0  0  0
  129.4673  136.1832  160.2342 H   0  0  0  0  0  0  0  0  0  0  0  0
  130.2611  135.3141  161.5694 H   0  0  0  0  0  0  0  0  0  0  0  0
  129.5298  133.2311  160.6149 H   0  0  0  0  0  0  0  0  0  0  0  0
  127.1389  132.9790  160.2616 H   0  0  0  0  0  0  0  0  0  0  0  0
  125.0579  134.0537  159.5014 H   0  0  0  0  0  0  0  0  0  0  0  0
  125.1539  135.9605  157.9463 H   0  0  0  0  0  0  0  0  0  0  0  0
  127.3313  136.7986  157.1588 H   0  0  0  0  0  0  0  0  0  0  0  0
  129.4125  135.7298  157.9263 H   0  0  0  0  0  0  0  0  0  0  0  0
  128.9567  131.0379  159.7517 H   0  0  0  0  0  0  0  0  0  0  0  0
  129.5549  129.2197  158.2026 H   0  0  0  0  0  0  0  0  0  0  0  0
  130.9941  129.6819  156.2589 H   0  0  0  0  0  0  0  0  0  0  0  0
  131.8276  131.9641  155.8591 H   0  0  0  0  0  0  0  0  0  0  0  0
  131.2219  133.7842  157.4030 H   0  0  0  0  0  0  0  0  0  0  0  0
  131.8560  133.5992  161.1062 H   0  0  0  0  0  0  0  0  0  0  0  0
  132.2588  133.1813  159.4236 H   0  0  0  0  0  0  0  0  0  0  0  0
  134.0463  134.5575  160.4671 H   0  0  0  0  0  0  0  0  0  0  0  0
  133.2805  135.4135  159.1068 H   0  0  0  0  0  0  0  0  0  0  0  0
  1  2  1  0
  2  3  1  0
  2 33  1  0
  2 34  1  0
  3 12  2  0
  3  4  1  0
  4  5  1  0
  4  9  2  0
  5  6  1  0
  6  8  1  0
  6  7  1  0
  6 35  1  0
  7  8  1  0
  7 36  1  0
  7 37  1  0
  8 38  1  0
  8 39  1  0
  9 10  1  0
  9 40  1  0
 10 11  2  0
 10 41  1  0
 11 12  1  0
 11 42  1  0
 12 13  1  0
 13 32  1  0
 13 14  1  0
 14 15  1  0
 14 43  1  0
 14 44  1  0
 15 16  1  0
 15 45  1  0
 15 46  1  0
 16 17  1  0
 16 18  1  0
 16 31  1  0
 18 19  1  0
 18 25  1  0
 18 47  1  0
 19 24  1  0
 19 20  2  0
 20 21  1  0
 20 48  1  0
 21 22  2  0
 21 49  1  0
 22 23  1  0
 22 50  1  0
 23 24  2  0
 23 51  1  0
 24 52  1  0
 25 30  1  0
 25 26  2  0
 26 27  1  0
 26 53  1  0
 27 28  2  0
 27 54  1  0
 28 29  1  0
 28 55  1  0
 29 30  2  0
 29 56  1  0
 30 57  1  0
 31 32  1  0
 31 58  1  0
 31 59  1  0
 32 60  1  0
 32 61  1  0
M  CHG  1  16   1
M  END
>  <DOCK_score>  (1) 
-56.633232

>  <SMILES>  (1) 
BrCc1c(SC2CC2)cccc1N1CC[NH+](C(c2ccccc2)c2ccccc2)CC1

$$$$
