Nc1ccc(-c2c[nH]c(Nc3ccc(Nc4ccccc4)c(O)c3)[nH+]2)cc1
     RDKit          3D

 47 50  0  0  1  0  0  0  0  0999 V2000
  131.4314  129.2143  151.3560 N   0  0  0  0  0  0  0  0  0  0  0  0
  131.1438  129.9096  152.5330 C   0  0  0  0  0  0  0  0  0  0  0  0
  130.2002  130.9305  152.5231 C   0  0  0  0  0  0  0  0  0  0  0  0
  129.9147  131.6179  153.6840 C   0  0  0  0  0  0  0  0  0  0  0  0
  130.5732  131.2885  154.8676 C   0  0  0  0  0  0  0  0  0  0  0  0
  130.2682  132.0269  156.1177 C   0  0  0  0  0  0  0  0  0  0  0  0
  129.7826  131.4888  157.2640 C   0  0  0  0  0  0  0  0  0  0  0  0
  129.6490  132.5199  158.1630 N   0  0  0  0  0  0  0  0  0  0  0  0
  129.3242  132.4492  159.0743 H   0  0  0  0  0  0  0  0  0  0  0  0
  130.0573  133.6581  157.5384 C   0  0  0  0  0  0  0  0  0  0  0  0
  130.0786  134.9238  158.1007 N   0  0  0  0  0  0  0  0  0  0  0  0
  129.1473  135.2668  159.0884 C   0  0  0  0  0  0  0  0  0  0  0  0
  129.4827  136.1940  160.0664 C   0  0  0  0  0  0  0  0  0  0  0  0
  128.5652  136.5345  161.0419 C   0  0  0  0  0  0  0  0  0  0  0  0
  127.3070  135.9503  161.0462 C   0  0  0  0  0  0  0  0  0  0  0  0
  126.3784  136.2920  162.0399 N   0  0  0  0  0  0  0  0  0  0  0  0
  126.6799  136.0666  163.3847 C   0  0  0  0  0  0  0  0  0  0  0  0
  126.1511  136.8966  164.3656 C   0  0  0  0  0  0  0  0  0  0  0  0
  126.4465  136.6669  165.6949 C   0  0  0  0  0  0  0  0  0  0  0  0
  127.2770  135.6195  166.0494 C   0  0  0  0  0  0  0  0  0  0  0  0
  127.8100  134.7951  165.0753 C   0  0  0  0  0  0  0  0  0  0  0  0
  127.5140  135.0152  163.7445 C   0  0  0  0  0  0  0  0  0  0  0  0
  126.9685  135.0196  160.0664 C   0  0  0  0  0  0  0  0  0  0  0  0
  125.7356  134.4454  160.0695 O   0  0  0  0  0  0  0  0  0  0  0  0
  127.8887  134.6801  159.0892 C   0  0  0  0  0  0  0  0  0  0  0  0
  130.4219  133.3598  156.3150 N   0  0  0  0  0  0  0  0  0  0  0  0
  130.7509  133.9914  155.6564 H   0  0  0  0  0  0  0  0  0  0  0  0
  131.5229  130.2681  154.8738 C   0  0  0  0  0  0  0  0  0  0  0  0
  131.8010  129.5795  153.7119 C   0  0  0  0  0  0  0  0  0  0  0  0
  130.9726  129.4447  150.5323 H   0  0  0  0  0  0  0  0  0  0  0  0
  132.0896  128.5025  151.3614 H   0  0  0  0  0  0  0  0  0  0  0  0
  129.6906  131.1855  151.6059 H   0  0  0  0  0  0  0  0  0  0  0  0
  129.1813  132.4105  153.6761 H   0  0  0  0  0  0  0  0  0  0  0  0
  129.5459  130.4494  157.4371 H   0  0  0  0  0  0  0  0  0  0  0  0
  130.7387  135.5724  157.8103 H   0  0  0  0  0  0  0  0  0  0  0  0
  130.4619  136.6498  160.0644 H   0  0  0  0  0  0  0  0  0  0  0  0
  128.8280  137.2558  161.8015 H   0  0  0  0  0  0  0  0  0  0  0  0
  125.5266  136.6850  161.7931 H   0  0  0  0  0  0  0  0  0  0  0  0
  125.5064  137.7177  164.0891 H   0  0  0  0  0  0  0  0  0  0  0  0
  126.0320  137.3088  166.4581 H   0  0  0  0  0  0  0  0  0  0  0  0
  127.5102  135.4451  167.0894 H   0  0  0  0  0  0  0  0  0  0  0  0
  128.4581  133.9780  165.3557 H   0  0  0  0  0  0  0  0  0  0  0  0
  127.9306  134.3710  162.9844 H   0  0  0  0  0  0  0  0  0  0  0  0
  125.5944  133.8134  159.3516 H   0  0  0  0  0  0  0  0  0  0  0  0
  127.6281  133.9590  158.3285 H   0  0  0  0  0  0  0  0  0  0  0  0
  132.0374  130.0142  155.7888 H   0  0  0  0  0  0  0  0  0  0  0  0
  132.5332  128.7856  153.7172 H   0  0  0  0  0  0  0  0  0  0  0  0
  1  2  1  0
  1 30  1  0
  1 31  1  0
  2 29  2  0
  2  3  1  0
  3  4  2  0
  3 32  1  0
  4  5  1  0
  4 33  1  0
  5  6  1  0
  5 28  2  0
  6 26  1  0
  6  7  2  0
  7  8  1  0
  7 34  1  0
  8  9  1  0
  8 10  1  0
 10 11  1  0
 10 26  2  0
 11 12  1  0
 11 35  1  0
 12 25  1  0
 12 13  2  0
 13 14  1  0
 13 36  1  0
 14 15  2  0
 14 37  1  0
 15 16  1  0
 15 23  1  0
 16 17  1  0
 16 38  1  0
 17 22  1  0
 17 18  2  0
 18 19  1  0
 18 39  1  0
 19 20  2  0
 19 40  1  0
 20 21  1  0
 20 41  1  0
 21 22  2  0
 21 42  1  0
 22 43  1  0
 23 24  1  0
 23 25  2  0
 24 44  1  0
 25 45  1  0
 26 27  1  0
 28 29  1  0
 28 46  1  0
 29 47  1  0
M  CHG  1  26   1
M  END
>  <DOCK_score>  (1) 
-56.445152

>  <SMILES>  (1) 
Nc1ccc(-c2c[nH]c(Nc3ccc(Nc4ccccc4)c(O)c3)[nH+]2)cc1

$$$$
