Cc1nn(C(C)C)cc1[C@H]1[NH2+]C(C)Cc2c1[nH]c1ccc(O)cc21
     RDKit          3D

 49 52  0  0  1  0  0  0  0  0999 V2000
  131.0805  130.0315  158.6583 C   0  0  0  0  0  0  0  0  0  0  0  0
  130.6803  130.8635  157.4673 C   0  0  0  0  0  0  0  0  0  0  0  0
  130.5902  130.4416  156.2320 N   0  0  0  0  0  0  0  0  0  0  0  0
  130.1904  131.5181  155.4298 N   0  0  0  0  0  0  0  0  0  0  0  0
  129.9647  131.4775  153.9829 C   0  0  0  0  0  0  0  0  0  0  0  0
  130.2765  132.8484  153.3794 C   0  0  0  0  0  0  0  0  0  0  0  0
  130.8778  130.4236  153.3535 C   0  0  0  0  0  0  0  0  0  0  0  0
  130.0445  132.5978  156.2262 C   0  0  0  0  0  0  0  0  0  0  0  0
  130.3413  132.2203  157.4913 C   0  0  0  0  0  0  0  0  0  0  0  0
  130.3119  133.1055  158.7106 C   0  0  1  0  0  0  0  0  0  0  0  0
  131.0506  132.7579  159.4328 H   0  0  0  0  0  0  0  0  0  0  0  0
  130.6153  134.4915  158.3220 N   0  0  0  0  0  0  0  0  0  0  0  0
  131.5734  134.5495  158.0113 H   0  0  0  0  0  0  0  0  0  0  0  0
  130.0024  134.7699  157.5703 H   0  0  0  0  0  0  0  0  0  0  0  0
  130.4189  135.3925  159.4655 C   0  0  2  0  0  0  0  0  0  0  0  0
  131.1030  134.8044  160.7013 C   0  0  0  0  0  0  0  0  0  0  0  0
  128.9171  135.5531  159.7401 C   0  0  0  0  0  0  0  0  0  0  0  0
  128.3074  134.1747  159.7924 C   0  0  0  0  0  0  0  0  0  0  0  0
  128.9353  133.0688  159.3304 C   0  0  0  0  0  0  0  0  0  0  0  0
  128.1381  131.9731  159.5169 N   0  0  0  0  0  0  0  0  0  0  0  0
  128.3707  131.0648  159.2686 H   0  0  0  0  0  0  0  0  0  0  0  0
  126.9632  132.3516  160.1071 C   0  0  0  0  0  0  0  0  0  0  0  0
  125.8413  131.6234  160.4962 C   0  0  0  0  0  0  0  0  0  0  0  0
  124.8020  132.3272  161.0776 C   0  0  0  0  0  0  0  0  0  0  0  0
  124.8568  133.7021  161.2724 C   0  0  0  0  0  0  0  0  0  0  0  0
  123.7981  134.3308  161.8496 O   0  0  0  0  0  0  0  0  0  0  0  0
  125.9613  134.4508  160.8942 C   0  0  0  0  0  0  0  0  0  0  0  0
  127.0225  133.7557  160.3045 C   0  0  0  0  0  0  0  0  0  0  0  0
  130.1923  129.5823  159.1026 H   0  0  0  0  0  0  0  0  0  0  0  0
  131.7643  129.2451  158.3389 H   0  0  0  0  0  0  0  0  0  0  0  0
  131.5742  130.6653  159.3950 H   0  0  0  0  0  0  0  0  0  0  0  0
  128.9238  131.2215  153.7847 H   0  0  0  0  0  0  0  0  0  0  0  0
  131.3173  133.1045  153.5777 H   0  0  0  0  0  0  0  0  0  0  0  0
  130.1084  132.8182  152.3029 H   0  0  0  0  0  0  0  0  0  0  0  0
  129.6259  133.5993  153.8279 H   0  0  0  0  0  0  0  0  0  0  0  0
  130.6557  129.4468  153.7833 H   0  0  0  0  0  0  0  0  0  0  0  0
  130.7097  130.3934  152.2769 H   0  0  0  0  0  0  0  0  0  0  0  0
  131.9187  130.6796  153.5516 H   0  0  0  0  0  0  0  0  0  0  0  0
  129.7450  133.5862  155.9103 H   0  0  0  0  0  0  0  0  0  0  0  0
  130.8528  136.3664  159.2391 H   0  0  0  0  0  0  0  0  0  0  0  0
  132.1695  134.6911  160.5068 H   0  0  0  0  0  0  0  0  0  0  0  0
  130.9573  135.4729  161.5498 H   0  0  0  0  0  0  0  0  0  0  0  0
  130.6694  133.8302  160.9276 H   0  0  0  0  0  0  0  0  0  0  0  0
  128.7683  136.0590  160.6940 H   0  0  0  0  0  0  0  0  0  0  0  0
  128.4553  136.1308  158.9393 H   0  0  0  0  0  0  0  0  0  0  0  0
  125.7853  130.5548  160.3502 H   0  0  0  0  0  0  0  0  0  0  0  0
  123.9185  131.7905  161.3902 H   0  0  0  0  0  0  0  0  0  0  0  0
  123.9144  135.2855  161.9497 H   0  0  0  0  0  0  0  0  0  0  0  0
  126.0004  135.5191  161.0476 H   0  0  0  0  0  0  0  0  0  0  0  0
  1  2  1  0
  1 29  1  0
  1 30  1  0
  1 31  1  0
  2  9  1  0
  2  3  2  0
  3  4  1  0
  4  5  1  0
  4  8  1  0
  5  6  1  0
  5  7  1  0
  5 32  1  0
  6 33  1  0
  6 34  1  0
  6 35  1  0
  7 36  1  0
  7 37  1  0
  7 38  1  0
  8  9  2  0
  8 39  1  0
  9 10  1  0
 10 11  1  1
 10 19  1  0
 10 12  1  0
 12 13  1  0
 12 14  1  0
 12 15  1  0
 15 16  1  0
 15 17  1  0
 15 40  1  6
 16 41  1  0
 16 42  1  0
 16 43  1  0
 17 18  1  0
 17 44  1  0
 17 45  1  0
 18 28  1  0
 18 19  2  0
 19 20  1  0
 20 21  1  0
 20 22  1  0
 22 28  2  0
 22 23  1  0
 23 24  2  0
 23 46  1  0
 24 25  1  0
 24 47  1  0
 25 26  1  0
 25 27  2  0
 26 48  1  0
 27 28  1  0
 27 49  1  0
M  CHG  1  12   1
M  END
>  <DOCK_score>  (1) 
-48.112473

>  <SMILES>  (1) 
Cc1nn(C(C)C)cc1[C@H]1[NH2+]C(C)Cc2c1[nH]c1ccc(O)cc21

$$$$
