CC(C)Nc1cc(Nc2[nH]cc(-c3cccnc3)[nH+]2)ccn1
     RDKit          3D

 41 43  0  0  1  0  0  0  0  0999 V2000
  127.0346  136.0594  164.8965 C   0  0  0  0  0  0  0  0  0  0  0  0
  127.6545  137.2442  164.1530 C   0  0  0  0  0  0  0  0  0  0  0  0
  128.2289  138.2374  165.1653 C   0  0  0  0  0  0  0  0  0  0  0  0
  128.7267  136.7644  163.2775 N   0  0  0  0  0  0  0  0  0  0  0  0
  128.4411  136.3919  161.9689 C   0  0  0  0  0  0  0  0  0  0  0  0
  129.4625  135.9382  161.1451 C   0  0  0  0  0  0  0  0  0  0  0  0
  129.1603  135.5641  159.8395 C   0  0  0  0  0  0  0  0  0  0  0  0
  130.1550  135.0987  158.9819 N   0  0  0  0  0  0  0  0  0  0  0  0
  130.0632  133.8264  158.4401 C   0  0  0  0  0  0  0  0  0  0  0  0
  129.4669  132.7545  159.0301 N   0  0  0  0  0  0  0  0  0  0  0  0
  129.0340  132.7436  159.8982 H   0  0  0  0  0  0  0  0  0  0  0  0
  129.5889  131.6923  158.1688 C   0  0  0  0  0  0  0  0  0  0  0  0
  130.2638  132.1423  157.0818 C   0  0  0  0  0  0  0  0  0  0  0  0
  130.6333  131.3403  155.8897 C   0  0  0  0  0  0  0  0  0  0  0  0
  130.1641  131.6953  154.6216 C   0  0  0  0  0  0  0  0  0  0  0  0
  130.5420  130.9178  153.5407 C   0  0  0  0  0  0  0  0  0  0  0  0
  131.3552  129.8185  153.7493 C   0  0  0  0  0  0  0  0  0  0  0  0
  131.7779  129.5050  154.9587 N   0  0  0  0  0  0  0  0  0  0  0  0
  131.4488  130.2177  156.0167 C   0  0  0  0  0  0  0  0  0  0  0  0
  130.5411  133.4553  157.2775 N   0  0  0  0  0  0  0  0  0  0  0  0
  131.0174  134.0283  156.6564 H   0  0  0  0  0  0  0  0  0  0  0  0
  127.8361  135.6720  159.4081 C   0  0  0  0  0  0  0  0  0  0  0  0
  126.8792  136.1361  160.2834 C   0  0  0  0  0  0  0  0  0  0  0  0
  127.1977  136.4786  161.5187 N   0  0  0  0  0  0  0  0  0  0  0  0
  127.7996  135.5658  165.4958 H   0  0  0  0  0  0  0  0  0  0  0  0
  126.2369  136.4163  165.5479 H   0  0  0  0  0  0  0  0  0  0  0  0
  126.6254  135.3518  164.1754 H   0  0  0  0  0  0  0  0  0  0  0  0
  126.8895  137.7377  163.5537 H   0  0  0  0  0  0  0  0  0  0  0  0
  128.6706  139.0815  164.6358 H   0  0  0  0  0  0  0  0  0  0  0  0
  127.4312  138.5944  165.8168 H   0  0  0  0  0  0  0  0  0  0  0  0
  128.9941  137.7439  165.7646 H   0  0  0  0  0  0  0  0  0  0  0  0
  129.6351  136.7029  163.6120 H   0  0  0  0  0  0  0  0  0  0  0  0
  130.4756  135.8727  161.5135 H   0  0  0  0  0  0  0  0  0  0  0  0
  130.9116  135.6652  158.7640 H   0  0  0  0  0  0  0  0  0  0  0  0
  129.2222  130.6890  158.3285 H   0  0  0  0  0  0  0  0  0  0  0  0
  129.5265  132.5566  154.4882 H   0  0  0  0  0  0  0  0  0  0  0  0
  130.2023  131.1644  152.5457 H   0  0  0  0  0  0  0  0  0  0  0  0
  131.6489  129.2074  152.9086 H   0  0  0  0  0  0  0  0  0  0  0  0
  131.8147  129.9295  156.9910 H   0  0  0  0  0  0  0  0  0  0  0  0
  127.5658  135.3945  158.4001 H   0  0  0  0  0  0  0  0  0  0  0  0
  125.8540  136.2215  159.9549 H   0  0  0  0  0  0  0  0  0  0  0  0
  1  2  1  0
  1 25  1  0
  1 26  1  0
  1 27  1  0
  2  3  1  0
  2  4  1  0
  2 28  1  0
  3 29  1  0
  3 30  1  0
  3 31  1  0
  4  5  1  0
  4 32  1  0
  5 24  2  0
  5  6  1  0
  6  7  2  0
  6 33  1  0
  7  8  1  0
  7 22  1  0
  8 34  1  0
  9  8  1  0
  9 20  2  0
  9 10  1  0
 10 11  1  0
 10 12  1  0
 12 13  2  0
 12 35  1  0
 13 14  1  0
 13 20  1  0
 14 19  1  0
 14 15  2  0
 15 16  1  0
 15 36  1  0
 16 17  2  0
 16 37  1  0
 17 18  1  0
 17 38  1  0
 18 19  2  0
 19 39  1  0
 20 21  1  0
 22 23  2  0
 22 40  1  0
 23 24  1  0
 23 41  1  0
M  CHG  1  20   1
M  END
>  <DOCK_score>  (1) 
-45.974693

>  <SMILES>  (1) 
CC(C)Nc1cc(Nc2[nH]cc(-c3cccnc3)[nH+]2)ccn1

$$$$
