Cc1cccc(Cl)c1CCc1ncccc1N1CC[NH+](C(c2ccccc2)c2ccccc2)CC1
     RDKit          3D

 68 72  0  0  0  0  0  0  0  0999 V2000
  137.6522  135.7385  163.5474 C   0  0  0  0  0  0  0  0  0  0  0  0
  136.8828  136.0362  164.8085 C   0  0  0  0  0  0  0  0  0  0  0  0
  136.9243  135.1498  165.8689 C   0  0  0  0  0  0  0  0  0  0  0  0
  136.2145  135.4195  167.0238 C   0  0  0  0  0  0  0  0  0  0  0  0
  135.4712  136.5808  167.1234 C   0  0  0  0  0  0  0  0  0  0  0  0
  135.4336  137.4705  166.0648 C   0  0  0  0  0  0  0  0  0  0  0  0
  134.5009  138.9293  166.1893 Cl  0  0  0  0  0  0  0  0  0  0  0  0
  136.1401  137.1974  164.9068 C   0  0  0  0  0  0  0  0  0  0  0  0
  136.0992  138.1658  163.7530 C   0  0  0  0  0  0  0  0  0  0  0  0
  134.9374  137.8049  162.8251 C   0  0  0  0  0  0  0  0  0  0  0  0
  134.8963  138.7733  161.6712 C   0  0  0  0  0  0  0  0  0  0  0  0
  135.7869  139.7427  161.6009 N   0  0  0  0  0  0  0  0  0  0  0  0
  135.7933  140.6095  160.6074 C   0  0  0  0  0  0  0  0  0  0  0  0
  134.8505  140.5408  159.5982 C   0  0  0  0  0  0  0  0  0  0  0  0
  133.8921  139.5417  159.6346 C   0  0  0  0  0  0  0  0  0  0  0  0
  133.9173  138.6390  160.6953 C   0  0  0  0  0  0  0  0  0  0  0  0
  132.9720  137.6135  160.7759 N   0  0  0  0  0  0  0  0  0  0  0  0
  133.4812  136.3783  160.1634 C   0  0  0  0  0  0  0  0  0  0  0  0
  132.4423  135.2664  160.3252 C   0  0  0  0  0  0  0  0  0  0  0  0
  131.1865  135.6717  159.6799 N   0  0  0  0  0  0  0  0  0  0  0  0
  131.3538  135.8491  158.7009 H   0  0  0  0  0  0  0  0  0  0  0  0
  130.1953  134.5966  159.8199 C   0  0  0  0  0  0  0  0  0  0  0  0
  128.9068  135.0121  159.1579 C   0  0  0  0  0  0  0  0  0  0  0  0
  127.7001  134.5322  159.6318 C   0  0  0  0  0  0  0  0  0  0  0  0
  126.5181  134.9170  159.0274 C   0  0  0  0  0  0  0  0  0  0  0  0
  126.5431  135.7736  157.9427 C   0  0  0  0  0  0  0  0  0  0  0  0
  127.7501  136.2494  157.4655 C   0  0  0  0  0  0  0  0  0  0  0  0
  128.9321  135.8686  158.0732 C   0  0  0  0  0  0  0  0  0  0  0  0
  130.7163  133.3443  159.1630 C   0  0  0  0  0  0  0  0  0  0  0  0
  130.4452  133.0990  157.8299 C   0  0  0  0  0  0  0  0  0  0  0  0
  130.9272  131.9526  157.2261 C   0  0  0  0  0  0  0  0  0  0  0  0
  131.6717  131.0467  157.9583 C   0  0  0  0  0  0  0  0  0  0  0  0
  131.9386  131.2895  159.2927 C   0  0  0  0  0  0  0  0  0  0  0  0
  131.4609  132.4385  159.8951 C   0  0  0  0  0  0  0  0  0  0  0  0
  130.6777  136.8926  160.3186 C   0  0  0  0  0  0  0  0  0  0  0  0
  131.7019  138.0180  160.1568 C   0  0  0  0  0  0  0  0  0  0  0  0
  138.6554  136.1573  163.6265 H   0  0  0  0  0  0  0  0  0  0  0  0
  137.7188  134.6595  163.4085 H   0  0  0  0  0  0  0  0  0  0  0  0
  137.1390  136.1836  162.6950 H   0  0  0  0  0  0  0  0  0  0  0  0
  137.5084  134.2447  165.7933 H   0  0  0  0  0  0  0  0  0  0  0  0
  136.2443  134.7251  167.8504 H   0  0  0  0  0  0  0  0  0  0  0  0
  134.9198  136.7933  168.0274 H   0  0  0  0  0  0  0  0  0  0  0  0
  135.9596  139.1779  164.1330 H   0  0  0  0  0  0  0  0  0  0  0  0
  137.0366  138.1115  163.1995 H   0  0  0  0  0  0  0  0  0  0  0  0
  135.0768  136.7927  162.4452 H   0  0  0  0  0  0  0  0  0  0  0  0
  133.9999  137.8593  163.3785 H   0  0  0  0  0  0  0  0  0  0  0  0
  136.5430  141.3866  160.5835 H   0  0  0  0  0  0  0  0  0  0  0  0
  134.8615  141.2580  158.7908 H   0  0  0  0  0  0  0  0  0  0  0  0
  133.1436  139.4646  158.8599 H   0  0  0  0  0  0  0  0  0  0  0  0
  133.6694  136.5488  159.1035 H   0  0  0  0  0  0  0  0  0  0  0  0
  134.4084  136.0841  160.6550 H   0  0  0  0  0  0  0  0  0  0  0  0
  132.2645  135.0868  161.3855 H   0  0  0  0  0  0  0  0  0  0  0  0
  132.8121  134.3531  159.8591 H   0  0  0  0  0  0  0  0  0  0  0  0
  130.0150  134.4041  160.8773 H   0  0  0  0  0  0  0  0  0  0  0  0
  127.6809  133.8595  160.4765 H   0  0  0  0  0  0  0  0  0  0  0  0
  125.5750  134.5450  159.3999 H   0  0  0  0  0  0  0  0  0  0  0  0
  125.6198  136.0707  157.4678 H   0  0  0  0  0  0  0  0  0  0  0  0
  127.7698  136.9183  156.6179 H   0  0  0  0  0  0  0  0  0  0  0  0
  129.8751  136.2400  157.7000 H   0  0  0  0  0  0  0  0  0  0  0  0
  129.8598  133.8046  157.2592 H   0  0  0  0  0  0  0  0  0  0  0  0
  130.7185  131.7628  156.1837 H   0  0  0  0  0  0  0  0  0  0  0  0
  132.0447  130.1489  157.4877 H   0  0  0  0  0  0  0  0  0  0  0  0
  132.5199  130.5816  159.8646 H   0  0  0  0  0  0  0  0  0  0  0  0
  131.6691  132.6280  160.9377 H   0  0  0  0  0  0  0  0  0  0  0  0
  130.5090  136.7047  161.3789 H   0  0  0  0  0  0  0  0  0  0  0  0
  129.7392  137.1849  159.8475 H   0  0  0  0  0  0  0  0  0  0  0  0
  131.3309  138.9200  160.6435 H   0  0  0  0  0  0  0  0  0  0  0  0
  131.8607  138.2156  159.0966 H   0  0  0  0  0  0  0  0  0  0  0  0
  1  2  1  0
  1 37  1  0
  1 38  1  0
  1 39  1  0
  2  8  2  0
  2  3  1  0
  3  4  2  0
  3 40  1  0
  4  5  1  0
  4 41  1  0
  5  6  2  0
  5 42  1  0
  6  7  1  0
  6  8  1  0
  8  9  1  0
  9 10  1  0
  9 43  1  0
  9 44  1  0
 10 11  1  0
 10 45  1  0
 10 46  1  0
 11 16  1  0
 11 12  2  0
 12 13  1  0
 13 14  2  0
 13 47  1  0
 14 15  1  0
 14 48  1  0
 15 16  2  0
 15 49  1  0
 16 17  1  0
 17 36  1  0
 17 18  1  0
 18 19  1  0
 18 50  1  0
 18 51  1  0
 19 20  1  0
 19 52  1  0
 19 53  1  0
 20 21  1  0
 20 22  1  0
 20 35  1  0
 22 23  1  0
 22 29  1  0
 22 54  1  0
 23 28  1  0
 23 24  2  0
 24 25  1  0
 24 55  1  0
 25 26  2  0
 25 56  1  0
 26 27  1  0
 26 57  1  0
 27 28  2  0
 27 58  1  0
 28 59  1  0
 29 34  1  0
 29 30  2  0
 30 31  1  0
 30 60  1  0
 31 32  2  0
 31 61  1  0
 32 33  1  0
 32 62  1  0
 33 34  2  0
 33 63  1  0
 34 64  1  0
 35 36  1  0
 35 65  1  0
 35 66  1  0
 36 67  1  0
 36 68  1  0
M  CHG  1  20   1
M  END
>  <DOCK_score>  (1) 
-57.905178

>  <SMILES>  (1) 
Cc1cccc(Cl)c1CCc1ncccc1N1CC[NH+](C(c2ccccc2)c2ccccc2)CC1

$$$$
