Clc1ccccc1C(c1ccccc1)[NH+]1CCN(c2cccc3c2C[C@H](Br)CC3)CC1
     RDKit          3D

 60 64  0  0  1  0  0  0  0  0999 V2000
  129.9466  130.7638  160.2466 Cl  0  0  0  0  0  0  0  0  0  0  0  0
  130.3449  131.2483  158.6279 C   0  0  0  0  0  0  0  0  0  0  0  0
  130.7649  130.3052  157.7066 C   0  0  0  0  0  0  0  0  0  0  0  0
  131.0815  130.6914  156.4180 C   0  0  0  0  0  0  0  0  0  0  0  0
  130.9790  132.0201  156.0494 C   0  0  0  0  0  0  0  0  0  0  0  0
  130.5541  132.9618  156.9677 C   0  0  0  0  0  0  0  0  0  0  0  0
  130.2422  132.5774  158.2583 C   0  0  0  0  0  0  0  0  0  0  0  0
  129.7843  133.6052  159.2609 C   0  0  2  0  0  0  0  0  0  0  0  0
  128.5284  134.2706  158.7602 C   0  0  0  0  0  0  0  0  0  0  0  0
  127.2918  133.7402  159.0771 C   0  0  0  0  0  0  0  0  0  0  0  0
  126.1395  134.3531  158.6215 C   0  0  0  0  0  0  0  0  0  0  0  0
  126.2242  135.4910  157.8409 C   0  0  0  0  0  0  0  0  0  0  0  0
  127.4610  136.0185  157.5200 C   0  0  0  0  0  0  0  0  0  0  0  0
  128.6131  135.4081  157.9793 C   0  0  0  0  0  0  0  0  0  0  0  0
  130.8354  134.6154  159.4414 N   0  0  0  0  0  0  0  0  0  0  0  0
  131.0229  135.0667  158.5586 H   0  0  0  0  0  0  0  0  0  0  0  0
  132.0597  133.9662  159.9284 C   0  0  0  0  0  0  0  0  0  0  0  0
  133.1605  135.0156  160.0986 C   0  0  0  0  0  0  0  0  0  0  0  0
  132.7144  136.0390  161.0545 N   0  0  0  0  0  0  0  0  0  0  0  0
  133.7160  136.9867  161.2768 C   0  0  0  0  0  0  0  0  0  0  0  0
  134.2025  137.7369  160.2171 C   0  0  0  0  0  0  0  0  0  0  0  0
  135.1930  138.6730  160.4397 C   0  0  0  0  0  0  0  0  0  0  0  0
  135.6938  138.8538  161.7130 C   0  0  0  0  0  0  0  0  0  0  0  0
  135.2107  138.1043  162.7785 C   0  0  0  0  0  0  0  0  0  0  0  0
  134.2172  137.1769  162.5651 C   0  0  0  0  0  0  0  0  0  0  0  0
  133.6395  136.3371  163.6739 C   0  0  0  0  0  0  0  0  0  0  0  0
  134.5641  136.3406  164.8897 C   0  0  2  0  0  0  0  0  0  0  0  0
  135.4787  135.7949  164.6576 H   0  0  0  0  0  0  0  0  0  0  0  0
  133.6566  135.4936  166.4142 Br  0  0  0  0  0  0  0  0  0  0  0  0
  134.9040  137.7954  165.2342 C   0  0  0  0  0  0  0  0  0  0  0  0
  135.8106  138.3513  164.1380 C   0  0  0  0  0  0  0  0  0  0  0  0
  131.4755  136.6803  160.5922 C   0  0  0  0  0  0  0  0  0  0  0  0
  130.3885  135.6174  160.4180 C   0  0  0  0  0  0  0  0  0  0  0  0
  130.8450  129.2673  157.9944 H   0  0  0  0  0  0  0  0  0  0  0  0
  131.4093  129.9554  155.6988 H   0  0  0  0  0  0  0  0  0  0  0  0
  131.2272  132.3215  155.0425 H   0  0  0  0  0  0  0  0  0  0  0  0
  130.4697  133.9988  156.6778 H   0  0  0  0  0  0  0  0  0  0  0  0
  129.5816  133.1175  160.2144 H   0  0  0  0  0  0  0  0  0  0  0  0
  127.2257  132.8491  159.6835 H   0  0  0  0  0  0  0  0  0  0  0  0
  125.1732  133.9412  158.8725 H   0  0  0  0  0  0  0  0  0  0  0  0
  125.3241  135.9679  157.4821 H   0  0  0  0  0  0  0  0  0  0  0  0
  127.5271  136.9075  156.9102 H   0  0  0  0  0  0  0  0  0  0  0  0
  129.5793  135.8202  157.7283 H   0  0  0  0  0  0  0  0  0  0  0  0
  131.8609  133.4894  160.8881 H   0  0  0  0  0  0  0  0  0  0  0  0
  132.3829  133.2139  159.2090 H   0  0  0  0  0  0  0  0  0  0  0  0
  133.3692  135.4831  159.1363 H   0  0  0  0  0  0  0  0  0  0  0  0
  134.0647  134.5364  160.4742 H   0  0  0  0  0  0  0  0  0  0  0  0
  133.8088  137.5896  159.2223 H   0  0  0  0  0  0  0  0  0  0  0  0
  135.5745  139.2626  159.6193 H   0  0  0  0  0  0  0  0  0  0  0  0
  136.4695  139.5859  161.8831 H   0  0  0  0  0  0  0  0  0  0  0  0
  133.5113  135.3132  163.3228 H   0  0  0  0  0  0  0  0  0  0  0  0
  132.6692  136.7434  163.9591 H   0  0  0  0  0  0  0  0  0  0  0  0
  135.4212  137.8343  166.1930 H   0  0  0  0  0  0  0  0  0  0  0  0
  133.9884  138.3843  165.2871 H   0  0  0  0  0  0  0  0  0  0  0  0
  136.7840  137.8640  164.1953 H   0  0  0  0  0  0  0  0  0  0  0  0
  135.9369  139.4238  164.2857 H   0  0  0  0  0  0  0  0  0  0  0  0
  131.6563  137.1753  159.6381 H   0  0  0  0  0  0  0  0  0  0  0  0
  131.1502  137.4160  161.3277 H   0  0  0  0  0  0  0  0  0  0  0  0
  129.4729  136.0892  160.0614 H   0  0  0  0  0  0  0  0  0  0  0  0
  130.1983  135.1320  161.3752 H   0  0  0  0  0  0  0  0  0  0  0  0
  1  2  1  0
  2  7  2  0
  2  3  1  0
  3  4  2  0
  3 34  1  0
  4  5  1  0
  4 35  1  0
  5  6  2  0
  5 36  1  0
  6  7  1  0
  6 37  1  0
  7  8  1  0
  8  9  1  0
  8 15  1  0
  8 38  1  1
  9 14  1  0
  9 10  2  0
 10 11  1  0
 10 39  1  0
 11 12  2  0
 11 40  1  0
 12 13  1  0
 12 41  1  0
 13 14  2  0
 13 42  1  0
 14 43  1  0
 15 16  1  0
 15 33  1  0
 15 17  1  0
 17 18  1  0
 17 44  1  0
 17 45  1  0
 18 19  1  0
 18 46  1  0
 18 47  1  0
 19 20  1  0
 19 32  1  0
 20 25  1  0
 20 21  2  0
 21 22  1  0
 21 48  1  0
 22 23  2  0
 22 49  1  0
 23 24  1  0
 23 50  1  0
 24 31  1  0
 24 25  2  0
 25 26  1  0
 26 27  1  0
 26 51  1  0
 26 52  1  0
 27 28  1  6
 27 29  1  0
 27 30  1  0
 30 31  1  0
 30 53  1  0
 30 54  1  0
 31 55  1  0
 31 56  1  0
 32 33  1  0
 32 57  1  0
 32 58  1  0
 33 59  1  0
 33 60  1  0
M  CHG  1  15   1
M  END
>  <DOCK_score>  (1) 
-56.541332

>  <SMILES>  (1) 
Clc1ccccc1C(c1ccccc1)[NH+]1CCN(c2cccc3c2C[C@H](Br)CC3)CC1

$$$$
