C1=C(C[NH2+]Cc2c[nH]nc2-c2ccc(NC3CC3)o2)CCC1
     RDKit          3D

 45 48  0  0  0  0  0  0  0  0999 V2000
  134.7579  138.2343  160.0984 C   0  0  0  0  0  0  0  0  0  0  0  0
  133.4622  138.2897  159.9497 C   0  0  0  0  0  0  0  0  0  0  0  0
  132.4833  137.3922  160.6618 C   0  0  0  0  0  0  0  0  0  0  0  0
  132.2455  136.1886  159.8539 N   0  0  0  0  0  0  0  0  0  0  0  0
  131.8671  136.4545  158.9573 H   0  0  0  0  0  0  0  0  0  0  0  0
  133.1161  135.6966  159.7191 H   0  0  0  0  0  0  0  0  0  0  0  0
  131.2912  135.3136  160.5480 C   0  0  0  0  0  0  0  0  0  0  0  0
  131.0472  134.0788  159.7193 C   0  0  0  0  0  0  0  0  0  0  0  0
  131.9904  133.3396  159.0972 C   0  0  0  0  0  0  0  0  0  0  0  0
  131.3718  132.3192  158.4643 N   0  0  0  0  0  0  0  0  0  0  0  0
  131.8060  131.6294  157.9381 H   0  0  0  0  0  0  0  0  0  0  0  0
  129.9948  132.4328  158.6935 N   0  0  0  0  0  0  0  0  0  0  0  0
  129.7922  133.4931  159.4505 C   0  0  0  0  0  0  0  0  0  0  0  0
  128.4834  133.9810  159.9323 C   0  0  0  0  0  0  0  0  0  0  0  0
  127.2772  133.4098  159.6753 C   0  0  0  0  0  0  0  0  0  0  0  0
  126.3061  134.1972  160.3249 C   0  0  0  0  0  0  0  0  0  0  0  0
  126.9657  135.2075  160.9445 C   0  0  0  0  0  0  0  0  0  0  0  0
  126.3802  136.2153  161.7021 N   0  0  0  0  0  0  0  0  0  0  0  0
  127.2164  137.2486  162.3179 C   0  0  0  0  0  0  0  0  0  0  0  0
  127.9099  136.9029  163.6371 C   0  0  0  0  0  0  0  0  0  0  0  0
  126.7230  137.8698  163.6261 C   0  0  0  0  0  0  0  0  0  0  0  0
  128.2811  135.0670  160.7077 O   0  0  0  0  0  0  0  0  0  0  0  0
  133.0731  139.3716  158.9693 C   0  0  0  0  0  0  0  0  0  0  0  0
  134.3799  139.7053  158.2129 C   0  0  0  0  0  0  0  0  0  0  0  0
  135.4487  139.2699  159.2421 C   0  0  0  0  0  0  0  0  0  0  0  0
  135.2690  137.5391  160.7480 H   0  0  0  0  0  0  0  0  0  0  0  0
  132.8922  137.1048  161.6304 H   0  0  0  0  0  0  0  0  0  0  0  0
  131.5428  137.9236  160.8075 H   0  0  0  0  0  0  0  0  0  0  0  0
  131.7000  135.0261  161.5167 H   0  0  0  0  0  0  0  0  0  0  0  0
  130.3508  135.8450  160.6939 H   0  0  0  0  0  0  0  0  0  0  0  0
  133.0536  133.5296  159.1059 H   0  0  0  0  0  0  0  0  0  0  0  0
  127.0976  132.5224  159.0866 H   0  0  0  0  0  0  0  0  0  0  0  0
  125.2393  134.0287  160.3283 H   0  0  0  0  0  0  0  0  0  0  0  0
  125.4180  136.2343  161.8231 H   0  0  0  0  0  0  0  0  0  0  0  0
  127.7505  137.8967  161.6231 H   0  0  0  0  0  0  0  0  0  0  0  0
  127.7441  135.9067  164.0469 H   0  0  0  0  0  0  0  0  0  0  0  0
  128.9002  137.3240  163.8104 H   0  0  0  0  0  0  0  0  0  0  0  0
  126.9330  138.9263  163.7924 H   0  0  0  0  0  0  0  0  0  0  0  0
  125.7764  137.5094  164.0289 H   0  0  0  0  0  0  0  0  0  0  0  0
  132.7063  140.2505  159.4996 H   0  0  0  0  0  0  0  0  0  0  0  0
  132.3170  139.0020  158.2766 H   0  0  0  0  0  0  0  0  0  0  0  0
  134.4494  140.7728  158.0043 H   0  0  0  0  0  0  0  0  0  0  0  0
  134.4603  139.1229  157.2950 H   0  0  0  0  0  0  0  0  0  0  0  0
  136.3079  138.8312  158.7346 H   0  0  0  0  0  0  0  0  0  0  0  0
  135.7589  140.1197  159.8501 H   0  0  0  0  0  0  0  0  0  0  0  0
  1 25  1  0
  1  2  2  0
  1 26  1  0
  2  3  1  0
  2 23  1  0
  3  4  1  0
  3 27  1  0
  3 28  1  0
  4  5  1  0
  4  6  1  0
  4  7  1  0
  7  8  1  0
  7 29  1  0
  7 30  1  0
  8 13  1  0
  8  9  2  0
  9 10  1  0
  9 31  1  0
 10 11  1  0
 10 12  1  0
 12 13  2  0
 13 14  1  0
 14 22  1  0
 14 15  2  0
 15 16  1  0
 15 32  1  0
 16 17  2  0
 16 33  1  0
 17 18  1  0
 17 22  1  0
 18 19  1  0
 18 34  1  0
 19 21  1  0
 19 20  1  0
 19 35  1  0
 20 21  1  0
 20 36  1  0
 20 37  1  0
 21 38  1  0
 21 39  1  0
 23 24  1  0
 23 40  1  0
 23 41  1  0
 24 25  1  0
 24 42  1  0
 24 43  1  0
 25 44  1  0
 25 45  1  0
M  CHG  1   4   1
M  END
>  <DOCK_score>  (1) 
-43.3643

>  <SMILES>  (1) 
C1=C(C[NH2+]Cc2c[nH]nc2-c2ccc(NC3CC3)o2)CCC1

$$$$
