Cc1cccc(NC2CC3(CC(NC(NC4CC4)=[NH+][C@H]4CCC(=O)NC4)C3)C2)c1CCl
     RDKit          3D

 66 70  0  0  1  0  0  0  0  0999 V2000
  136.1898  141.8431  160.6007 C   0  0  0  0  0  0  0  0  0  0  0  0
  136.2782  140.5226  161.3214 C   0  0  0  0  0  0  0  0  0  0  0  0
  137.5137  140.0084  161.6734 C   0  0  0  0  0  0  0  0  0  0  0  0
  137.5989  138.7979  162.3347 C   0  0  0  0  0  0  0  0  0  0  0  0
  136.4504  138.0968  162.6465 C   0  0  0  0  0  0  0  0  0  0  0  0
  135.2085  138.6099  162.2951 C   0  0  0  0  0  0  0  0  0  0  0  0
  134.0450  137.9034  162.6085 N   0  0  0  0  0  0  0  0  0  0  0  0
  134.1336  136.6226  163.3142 C   0  0  2  0  0  0  0  0  0  0  0  0
  134.4364  135.4296  162.3893 C   0  0  0  0  0  0  0  0  0  0  0  0
  132.9230  135.2800  162.2298 C   0  0  0  0  0  0  0  0  0  0  0  0
  132.2873  133.9158  161.9601 C   0  0  0  0  0  0  0  0  0  0  0  0
  131.1777  134.6774  161.2127 C   0  0  2  0  0  0  0  0  0  0  0  0
  130.7458  134.0201  159.9767 N   0  0  0  0  0  0  0  0  0  0  0  0
  129.4523  134.1682  159.5350 C   0  0  0  0  0  0  0  0  0  0  0  0
  129.0473  133.5512  158.3752 N   0  0  0  0  0  0  0  0  0  0  0  0
  129.9940  132.7362  157.6099 C   0  0  0  0  0  0  0  0  0  0  0  0
  129.4150  131.6949  156.6500 C   0  0  0  0  0  0  0  0  0  0  0  0
  130.0823  131.2475  157.9522 C   0  0  0  0  0  0  0  0  0  0  0  0
  128.6101  134.8932  160.2160 N   0  0  0  0  0  0  0  0  0  0  0  0
  128.9296  135.6453  160.7387 H   0  0  0  0  0  0  0  0  0  0  0  0
  127.1808  134.5724  160.1921 C   0  0  1  0  0  0  0  0  0  0  0  0
  126.8098  134.6319  159.1689 H   0  0  0  0  0  0  0  0  0  0  0  0
  126.9623  133.1559  160.7371 C   0  0  0  0  0  0  0  0  0  0  0  0
  125.4929  132.7798  160.5316 C   0  0  0  0  0  0  0  0  0  0  0  0
  124.6077  133.8863  161.0291 C   0  0  0  0  0  0  0  0  0  0  0  0
  123.4408  133.6353  161.2439 O   0  0  0  0  0  0  0  0  0  0  0  0
  125.0363  135.1301  161.2471 N   0  0  0  0  0  0  0  0  0  0  0  0
  126.4184  135.5602  161.0761 C   0  0  0  0  0  0  0  0  0  0  0  0
  132.2035  135.8026  160.9860 C   0  0  0  0  0  0  0  0  0  0  0  0
  132.7646  135.9723  163.5840 C   0  0  0  0  0  0  0  0  0  0  0  0
  135.1263  139.8247  161.6259 C   0  0  0  0  0  0  0  0  0  0  0  0
  133.7814  140.3823  161.2371 C   0  0  0  0  0  0  0  0  0  0  0  0
  133.1491  141.4137  162.5739 Cl  0  0  0  0  0  0  0  0  0  0  0  0
  136.2218  141.6725  159.5245 H   0  0  0  0  0  0  0  0  0  0  0  0
  135.2546  142.3380  160.8623 H   0  0  0  0  0  0  0  0  0  0  0  0
  137.0290  142.4740  160.8937 H   0  0  0  0  0  0  0  0  0  0  0  0
  138.4129  140.5546  161.4295 H   0  0  0  0  0  0  0  0  0  0  0  0
  138.5649  138.3995  162.6077 H   0  0  0  0  0  0  0  0  0  0  0  0
  136.5180  137.1506  163.1628 H   0  0  0  0  0  0  0  0  0  0  0  0
  133.1785  138.2608  162.3590 H   0  0  0  0  0  0  0  0  0  0  0  0
  134.7764  136.6668  164.1935 H   0  0  0  0  0  0  0  0  0  0  0  0
  134.9480  135.7089  161.4683 H   0  0  0  0  0  0  0  0  0  0  0  0
  134.9078  134.5894  162.8992 H   0  0  0  0  0  0  0  0  0  0  0  0
  132.8873  133.2733  161.3155 H   0  0  0  0  0  0  0  0  0  0  0  0
  131.9401  133.4092  162.8605 H   0  0  0  0  0  0  0  0  0  0  0  0
  130.3437  134.9698  161.8508 H   0  0  0  0  0  0  0  0  0  0  0  0
  131.3725  133.4803  159.4700 H   0  0  0  0  0  0  0  0  0  0  0  0
  128.1346  133.6555  158.0635 H   0  0  0  0  0  0  0  0  0  0  0  0
  130.9138  133.2394  157.3119 H   0  0  0  0  0  0  0  0  0  0  0  0
  128.3297  131.6163  156.5878 H   0  0  0  0  0  0  0  0  0  0  0  0
  129.9537  131.5131  155.7201 H   0  0  0  0  0  0  0  0  0  0  0  0
  131.0600  130.7712  157.8789 H   0  0  0  0  0  0  0  0  0  0  0  0
  129.4358  130.8746  158.7467 H   0  0  0  0  0  0  0  0  0  0  0  0
  127.5995  132.4536  160.1997 H   0  0  0  0  0  0  0  0  0  0  0  0
  127.2023  133.1305  161.8000 H   0  0  0  0  0  0  0  0  0  0  0  0
  125.3060  132.6161  159.4703 H   0  0  0  0  0  0  0  0  0  0  0  0
  125.2725  131.8658  161.0831 H   0  0  0  0  0  0  0  0  0  0  0  0
  124.3875  135.7901  161.5376 H   0  0  0  0  0  0  0  0  0  0  0  0
  126.9012  135.6174  162.0517 H   0  0  0  0  0  0  0  0  0  0  0  0
  126.4341  136.5460  160.6115 H   0  0  0  0  0  0  0  0  0  0  0  0
  131.7894  136.8034  161.1082 H   0  0  0  0  0  0  0  0  0  0  0  0
  132.7807  135.6919  160.0679 H   0  0  0  0  0  0  0  0  0  0  0  0
  132.7660  135.2845  164.4297 H   0  0  0  0  0  0  0  0  0  0  0  0
  131.9407  136.6850  163.6174 H   0  0  0  0  0  0  0  0  0  0  0  0
  133.8843  140.9822  160.3328 H   0  0  0  0  0  0  0  0  0  0  0  0
  133.0878  139.5621  161.0517 H   0  0  0  0  0  0  0  0  0  0  0  0
  1  2  1  0
  1 34  1  0
  1 35  1  0
  1 36  1  0
  2 31  2  0
  2  3  1  0
  3  4  2  0
  3 37  1  0
  4  5  1  0
  4 38  1  0
  5  6  2  0
  5 39  1  0
  6  7  1  0
  6 31  1  0
  7  8  1  0
  7 40  1  0
  8 30  1  0
  8  9  1  0
  8 41  1  1
  9 42  1  0
  9 43  1  0
 10  9  1  0
 10 29  1  0
 10 11  1  0
 10 30  1  0
 11 12  1  0
 11 44  1  0
 11 45  1  0
 12 13  1  0
 12 29  1  0
 12 46  1  1
 13 47  1  0
 14 13  1  0
 14 15  1  0
 14 19  2  0
 15 16  1  0
 15 48  1  0
 16 18  1  0
 16 17  1  0
 16 49  1  0
 17 18  1  0
 17 50  1  0
 17 51  1  0
 18 52  1  0
 18 53  1  0
 19 20  1  0
 19 21  1  0
 21 22  1  6
 21 28  1  0
 21 23  1  0
 23 24  1  0
 23 54  1  0
 23 55  1  0
 24 25  1  0
 24 56  1  0
 24 57  1  0
 25 26  2  0
 25 27  1  0
 27 28  1  0
 27 58  1  0
 28 59  1  0
 28 60  1  0
 29 61  1  0
 29 62  1  0
 30 63  1  0
 30 64  1  0
 31 32  1  0
 32 33  1  0
 32 65  1  0
 32 66  1  0
M  CHG  1  19   1
M  END
>  <DOCK_score>  (1) 
-43.489792

>  <SMILES>  (1) 
Cc1cccc(NC2CC3(CC(NC(NC4CC4)=[NH+][C@H]4CCC(=O)NC4)C3)C2)c1CCl

$$$$
