FC1CC(c2c(N3CC[NH+](C(c4ccccc4)c4ccccc4)CC3)ccc3c2CCC3)C1
     RDKit          3D

 67 72  0  0  1  0  0  0  0  0999 V2000
  131.0009  135.7576  163.7565 F   0  0  0  0  0  0  0  0  0  0  0  0
  132.0888  136.4981  164.2310 C   0  0  2  0  0  0  0  0  0  0  0  0
  132.0927  137.9607  163.7559 C   0  0  0  0  0  0  0  0  0  0  0  0
  133.6134  137.8168  163.5787 C   0  0  2  0  0  0  0  0  0  0  0  0
  134.1431  138.4910  162.3393 C   0  0  0  0  0  0  0  0  0  0  0  0
  133.6835  138.1012  161.0888 C   0  0  0  0  0  0  0  0  0  0  0  0
  132.7321  137.0847  160.9775 N   0  0  0  0  0  0  0  0  0  0  0  0
  133.2812  135.9255  160.2599 C   0  0  0  0  0  0  0  0  0  0  0  0
  132.2299  134.8145  160.2117 C   0  0  0  0  0  0  0  0  0  0  0  0
  131.0261  135.3083  159.5305 N   0  0  0  0  0  0  0  0  0  0  0  0
  131.2651  135.5994  158.5945 H   0  0  0  0  0  0  0  0  0  0  0  0
  130.0240  134.2360  159.4685 C   0  0  0  0  0  0  0  0  0  0  0  0
  128.7887  134.7424  158.7696 C   0  0  0  0  0  0  0  0  0  0  0  0
  127.5492  134.2236  159.0941 C   0  0  0  0  0  0  0  0  0  0  0  0
  126.4155  134.6916  158.4564 C   0  0  0  0  0  0  0  0  0  0  0  0
  126.5225  135.6710  157.4868 C   0  0  0  0  0  0  0  0  0  0  0  0
  127.7625  136.1861  157.1585 C   0  0  0  0  0  0  0  0  0  0  0  0
  128.8957  135.7219  157.7999 C   0  0  0  0  0  0  0  0  0  0  0  0
  130.5882  133.0650  158.7059 C   0  0  0  0  0  0  0  0  0  0  0  0
  130.4147  132.9834  157.3369 C   0  0  0  0  0  0  0  0  0  0  0  0
  130.9363  131.9116  156.6368 C   0  0  0  0  0  0  0  0  0  0  0  0
  131.6223  130.9161  157.3070 C   0  0  0  0  0  0  0  0  0  0  0  0
  131.7912  130.9950  158.6768 C   0  0  0  0  0  0  0  0  0  0  0  0
  131.2743  132.0695  159.3763 C   0  0  0  0  0  0  0  0  0  0  0  0
  130.4753  136.4503  160.2723 C   0  0  0  0  0  0  0  0  0  0  0  0
  131.5119  137.5750  160.3209 C   0  0  0  0  0  0  0  0  0  0  0  0
  134.1733  138.7249  159.9487 C   0  0  0  0  0  0  0  0  0  0  0  0
  135.1140  139.7281  160.0648 C   0  0  0  0  0  0  0  0  0  0  0  0
  135.5717  140.1165  161.3132 C   0  0  0  0  0  0  0  0  0  0  0  0
  135.0858  139.4972  162.4506 C   0  0  0  0  0  0  0  0  0  0  0  0
  135.7389  140.0964  163.6778 C   0  0  0  0  0  0  0  0  0  0  0  0
  136.3419  141.4350  163.2016 C   0  0  0  0  0  0  0  0  0  0  0  0
  136.5838  141.1739  161.6999 C   0  0  0  0  0  0  0  0  0  0  0  0
  133.3711  136.3083  163.4035 C   0  0  0  0  0  0  0  0  0  0  0  0
  132.2416  136.3873  165.3046 H   0  0  0  0  0  0  0  0  0  0  0  0
  131.8089  138.6723  164.5313 H   0  0  0  0  0  0  0  0  0  0  0  0
  131.5569  138.1185  162.8200 H   0  0  0  0  0  0  0  0  0  0  0  0
  134.1830  138.0680  164.4734 H   0  0  0  0  0  0  0  0  0  0  0  0
  133.5470  136.2189  159.2444 H   0  0  0  0  0  0  0  0  0  0  0  0
  134.1690  135.5639  160.7787 H   0  0  0  0  0  0  0  0  0  0  0  0
  131.9744  134.5119  161.2273 H   0  0  0  0  0  0  0  0  0  0  0  0
  132.6301  133.9590  159.6676 H   0  0  0  0  0  0  0  0  0  0  0  0
  129.7660  133.9209  160.4796 H   0  0  0  0  0  0  0  0  0  0  0  0
  127.4662  133.4553  159.8486 H   0  0  0  0  0  0  0  0  0  0  0  0
  125.4468  134.2889  158.7127 H   0  0  0  0  0  0  0  0  0  0  0  0
  125.6372  136.0335  156.9855 H   0  0  0  0  0  0  0  0  0  0  0  0
  127.8462  136.9510  156.4007 H   0  0  0  0  0  0  0  0  0  0  0  0
  129.8645  136.1241  157.5433 H   0  0  0  0  0  0  0  0  0  0  0  0
  129.8748  133.7588  156.8139 H   0  0  0  0  0  0  0  0  0  0  0  0
  130.8039  131.8497  155.5667 H   0  0  0  0  0  0  0  0  0  0  0  0
  132.0260  130.0766  156.7607 H   0  0  0  0  0  0  0  0  0  0  0  0
  132.3270  130.2171  159.2005 H   0  0  0  0  0  0  0  0  0  0  0  0
  131.4059  132.1310  160.4464 H   0  0  0  0  0  0  0  0  0  0  0  0
  130.2288  136.1393  161.2874 H   0  0  0  0  0  0  0  0  0  0  0  0
  129.5747  136.8076  159.7729 H   0  0  0  0  0  0  0  0  0  0  0  0
  131.1090  138.4168  160.8840 H   0  0  0  0  0  0  0  0  0  0  0  0
  131.7485  137.8956  159.3064 H   0  0  0  0  0  0  0  0  0  0  0  0
  133.8193  138.4253  158.9734 H   0  0  0  0  0  0  0  0  0  0  0  0
  135.4944  140.2132  159.1780 H   0  0  0  0  0  0  0  0  0  0  0  0
  134.9946  140.2721  164.4547 H   0  0  0  0  0  0  0  0  0  0  0  0
  136.5235  139.4371  164.0489 H   0  0  0  0  0  0  0  0  0  0  0  0
  137.2809  141.6413  163.7152 H   0  0  0  0  0  0  0  0  0  0  0  0
  135.6337  142.2513  163.3438 H   0  0  0  0  0  0  0  0  0  0  0  0
  137.5966  140.8049  161.5385 H   0  0  0  0  0  0  0  0  0  0  0  0
  136.4167  142.0854  161.1258 H   0  0  0  0  0  0  0  0  0  0  0  0
  133.1847  136.0130  162.3711 H   0  0  0  0  0  0  0  0  0  0  0  0
  134.1193  135.6860  163.8943 H   0  0  0  0  0  0  0  0  0  0  0  0
  1  2  1  0
  2 34  1  0
  2  3  1  0
  2 35  1  1
  3  4  1  0
  3 36  1  0
  3 37  1  0
  4  5  1  0
  4 34  1  0
  4 38  1  1
  5 30  2  0
  5  6  1  0
  6  7  1  0
  6 27  2  0
  7 26  1  0
  7  8  1  0
  8  9  1  0
  8 39  1  0
  8 40  1  0
  9 10  1  0
  9 41  1  0
  9 42  1  0
 10 11  1  0
 10 12  1  0
 10 25  1  0
 12 13  1  0
 12 19  1  0
 12 43  1  0
 13 18  1  0
 13 14  2  0
 14 15  1  0
 14 44  1  0
 15 16  2  0
 15 45  1  0
 16 17  1  0
 16 46  1  0
 17 18  2  0
 17 47  1  0
 18 48  1  0
 19 24  1  0
 19 20  2  0
 20 21  1  0
 20 49  1  0
 21 22  2  0
 21 50  1  0
 22 23  1  0
 22 51  1  0
 23 24  2  0
 23 52  1  0
 24 53  1  0
 25 26  1  0
 25 54  1  0
 25 55  1  0
 26 56  1  0
 26 57  1  0
 27 28  1  0
 27 58  1  0
 28 29  2  0
 28 59  1  0
 29 33  1  0
 29 30  1  0
 30 31  1  0
 31 32  1  0
 31 60  1  0
 31 61  1  0
 32 33  1  0
 32 62  1  0
 32 63  1  0
 33 64  1  0
 33 65  1  0
 34 66  1  0
 34 67  1  0
M  CHG  1  10   1
M  END
>  <DOCK_score>  (1) 
-58.665314

>  <SMILES>  (1) 
FC1CC(c2c(N3CC[NH+](C(c4ccccc4)c4ccccc4)CC3)ccc3c2CCC3)C1

$$$$
