CCc1ccc(-c2c[nH]c(N[C@H](c3ccccc3)c3ccccc3O)[nH+]2)cc1
     RDKit          3D

 52 55  0  0  1  0  0  0  0  0999 V2000
  130.8646  128.9837  151.6441 C   0  0  0  0  0  0  0  0  0  0  0  0
  132.0772  129.5351  152.3969 C   0  0  0  0  0  0  0  0  0  0  0  0
  131.6106  130.3054  153.6052 C   0  0  0  0  0  0  0  0  0  0  0  0
  131.4449  129.6553  154.8149 C   0  0  0  0  0  0  0  0  0  0  0  0
  131.0233  130.3567  155.9261 C   0  0  0  0  0  0  0  0  0  0  0  0
  130.7534  131.7204  155.8250 C   0  0  0  0  0  0  0  0  0  0  0  0
  130.2947  132.4787  157.0145 C   0  0  0  0  0  0  0  0  0  0  0  0
  129.5744  131.9802  158.0497 C   0  0  0  0  0  0  0  0  0  0  0  0
  129.3682  133.0167  158.9274 N   0  0  0  0  0  0  0  0  0  0  0  0
  128.8835  132.9712  159.7664 H   0  0  0  0  0  0  0  0  0  0  0  0
  129.9691  134.1191  158.4024 C   0  0  0  0  0  0  0  0  0  0  0  0
  129.9926  135.3769  158.9803 N   0  0  0  0  0  0  0  0  0  0  0  0
  128.8842  135.8117  159.8338 C   0  0  2  0  0  0  0  0  0  0  0  0
  128.7915  135.1337  160.6823 H   0  0  0  0  0  0  0  0  0  0  0  0
  127.6037  135.8000  159.0393 C   0  0  0  0  0  0  0  0  0  0  0  0
  126.4001  135.5507  159.6718 C   0  0  0  0  0  0  0  0  0  0  0  0
  125.2251  135.5442  158.9438 C   0  0  0  0  0  0  0  0  0  0  0  0
  125.2547  135.7777  157.5816 C   0  0  0  0  0  0  0  0  0  0  0  0
  126.4588  136.0222  156.9483 C   0  0  0  0  0  0  0  0  0  0  0  0
  127.6334  136.0329  157.6771 C   0  0  0  0  0  0  0  0  0  0  0  0
  129.1527  137.2080  160.3334 C   0  0  0  0  0  0  0  0  0  0  0  0
  129.8923  138.0867  159.5656 C   0  0  0  0  0  0  0  0  0  0  0  0
  130.1345  139.3693  160.0211 C   0  0  0  0  0  0  0  0  0  0  0  0
  129.6467  139.7727  161.2501 C   0  0  0  0  0  0  0  0  0  0  0  0
  128.9115  138.8961  162.0244 C   0  0  0  0  0  0  0  0  0  0  0  0
  128.6622  137.6100  161.5670 C   0  0  0  0  0  0  0  0  0  0  0  0
  127.9383  136.7461  162.3262 O   0  0  0  0  0  0  0  0  0  0  0  0
  130.5266  133.7923  157.2621 N   0  0  0  0  0  0  0  0  0  0  0  0
  131.0235  134.3941  156.6861 H   0  0  0  0  0  0  0  0  0  0  0  0
  130.9167  132.3690  154.6022 C   0  0  0  0  0  0  0  0  0  0  0  0
  131.3442  131.6586  153.4990 C   0  0  0  0  0  0  0  0  0  0  0  0
  130.2993  128.3223  152.3006 H   0  0  0  0  0  0  0  0  0  0  0  0
  130.2287  129.8094  151.3252 H   0  0  0  0  0  0  0  0  0  0  0  0
  131.2022  128.4265  150.7702 H   0  0  0  0  0  0  0  0  0  0  0  0
  132.7132  128.7092  152.7158 H   0  0  0  0  0  0  0  0  0  0  0  0
  132.6425  130.1965  151.7403 H   0  0  0  0  0  0  0  0  0  0  0  0
  131.6497  128.5976  154.8909 H   0  0  0  0  0  0  0  0  0  0  0  0
  130.8987  129.8492  156.8713 H   0  0  0  0  0  0  0  0  0  0  0  0
  129.2287  130.9633  158.1624 H   0  0  0  0  0  0  0  0  0  0  0  0
  130.7431  135.9702  158.8202 H   0  0  0  0  0  0  0  0  0  0  0  0
  126.3774  135.3643  160.7354 H   0  0  0  0  0  0  0  0  0  0  0  0
  124.2842  135.3534  159.4386 H   0  0  0  0  0  0  0  0  0  0  0  0
  124.3371  135.7692  157.0122 H   0  0  0  0  0  0  0  0  0  0  0  0
  126.4820  136.2045  155.8840 H   0  0  0  0  0  0  0  0  0  0  0  0
  128.5742  136.2237  157.1823 H   0  0  0  0  0  0  0  0  0  0  0  0
  130.2779  137.7727  158.6068 H   0  0  0  0  0  0  0  0  0  0  0  0
  130.7089  140.0563  159.4172 H   0  0  0  0  0  0  0  0  0  0  0  0
  129.8414  140.7737  161.6063 H   0  0  0  0  0  0  0  0  0  0  0  0
  128.5305  139.2117  162.9844 H   0  0  0  0  0  0  0  0  0  0  0  0
  127.6402  137.1170  163.1680 H   0  0  0  0  0  0  0  0  0  0  0  0
  130.7088  133.4256  154.5182 H   0  0  0  0  0  0  0  0  0  0  0  0
  131.4715  132.1602  152.5511 H   0  0  0  0  0  0  0  0  0  0  0  0
  1  2  1  0
  1 32  1  0
  1 33  1  0
  1 34  1  0
  2  3  1  0
  2 35  1  0
  2 36  1  0
  3 31  2  0
  3  4  1  0
  4  5  2  0
  4 37  1  0
  5  6  1  0
  5 38  1  0
  6  7  1  0
  6 30  2  0
  7 28  1  0
  7  8  2  0
  8  9  1  0
  8 39  1  0
  9 10  1  0
  9 11  1  0
 11 12  1  0
 11 28  2  0
 12 13  1  0
 12 40  1  0
 13 14  1  1
 13 15  1  0
 13 21  1  0
 15 20  1  0
 15 16  2  0
 16 17  1  0
 16 41  1  0
 17 18  2  0
 17 42  1  0
 18 19  1  0
 18 43  1  0
 19 20  2  0
 19 44  1  0
 20 45  1  0
 21 26  1  0
 21 22  2  0
 22 23  1  0
 22 46  1  0
 23 24  2  0
 23 47  1  0
 24 25  1  0
 24 48  1  0
 25 26  2  0
 25 49  1  0
 26 27  1  0
 27 50  1  0
 28 29  1  0
 30 31  1  0
 30 51  1  0
 31 52  1  0
M  CHG  1  28   1
M  END
>  <DOCK_score>  (1) 
-61.656143

>  <SMILES>  (1) 
CCc1ccc(-c2c[nH]c(N[C@H](c3ccccc3)c3ccccc3O)[nH+]2)cc1

$$$$
