Cc1cccc(-c2cccc(F)c2CN(C)C(=O)C[NH+]2CCC[C@@H]2Cc2ccccc2F)c1
     RDKit          3D

 64 67  0  0  1  0  0  0  0  0999 V2000
  129.4252  142.0284  163.4125 C   0  0  0  0  0  0  0  0  0  0  0  0
  130.5645  141.0441  163.3513 C   0  0  0  0  0  0  0  0  0  0  0  0
  130.4912  139.8581  164.0600 C   0  0  0  0  0  0  0  0  0  0  0  0
  131.5331  138.9501  164.0080 C   0  0  0  0  0  0  0  0  0  0  0  0
  132.6525  139.2229  163.2480 C   0  0  0  0  0  0  0  0  0  0  0  0
  132.7318  140.4156  162.5323 C   0  0  0  0  0  0  0  0  0  0  0  0
  133.9324  140.7141  161.7130 C   0  0  0  0  0  0  0  0  0  0  0  0
  135.0107  141.3954  162.2751 C   0  0  0  0  0  0  0  0  0  0  0  0
  136.1276  141.6662  161.5113 C   0  0  0  0  0  0  0  0  0  0  0  0
  136.1751  141.2731  160.1862 C   0  0  0  0  0  0  0  0  0  0  0  0
  135.1048  140.6003  159.6198 C   0  0  0  0  0  0  0  0  0  0  0  0
  135.1566  140.2186  158.3250 F   0  0  0  0  0  0  0  0  0  0  0  0
  133.9833  140.3194  160.3783 C   0  0  0  0  0  0  0  0  0  0  0  0
  132.8190  139.5875  159.7623 C   0  0  0  0  0  0  0  0  0  0  0  0
  132.9997  138.1447  159.9405 N   0  0  0  0  0  0  0  0  0  0  0  0
  134.1756  137.4784  159.3751 C   0  0  0  0  0  0  0  0  0  0  0  0
  132.0840  137.4303  160.6243 C   0  0  0  0  0  0  0  0  0  0  0  0
  131.1105  137.9818  161.0921 O   0  0  0  0  0  0  0  0  0  0  0  0
  132.2700  135.9460  160.8075 C   0  0  0  0  0  0  0  0  0  0  0  0
  131.6344  135.2315  159.6924 N   0  0  1  0  0  0  0  0  0  0  0  0
  131.8030  135.7276  158.8301 H   0  0  0  0  0  0  0  0  0  0  0  0
  132.1876  133.8682  159.5969 C   0  0  0  0  0  0  0  0  0  0  0  0
  131.0098  132.8844  159.7598 C   0  0  0  0  0  0  0  0  0  0  0  0
  129.7792  133.7450  159.3703 C   0  0  0  0  0  0  0  0  0  0  0  0
  130.1784  135.1331  159.9299 C   0  0  2  0  0  0  0  0  0  0  0  0
  129.9634  135.1883  160.9971 H   0  0  0  0  0  0  0  0  0  0  0  0
  129.4400  136.2427  159.1786 C   0  0  0  0  0  0  0  0  0  0  0  0
  127.9556  136.0897  159.3884 C   0  0  0  0  0  0  0  0  0  0  0  0
  127.1211  135.8902  158.3047 C   0  0  0  0  0  0  0  0  0  0  0  0
  125.7597  135.7494  158.4968 C   0  0  0  0  0  0  0  0  0  0  0  0
  125.2305  135.8086  159.7729 C   0  0  0  0  0  0  0  0  0  0  0  0
  126.0627  136.0085  160.8578 C   0  0  0  0  0  0  0  0  0  0  0  0
  127.4278  136.1435  160.6671 C   0  0  0  0  0  0  0  0  0  0  0  0
  128.2430  136.3330  161.7275 F   0  0  0  0  0  0  0  0  0  0  0  0
  131.6768  141.3246  162.5841 C   0  0  0  0  0  0  0  0  0  0  0  0
  129.5886  142.7225  164.2370 H   0  0  0  0  0  0  0  0  0  0  0  0
  129.3735  142.5829  162.4756 H   0  0  0  0  0  0  0  0  0  0  0  0
  128.4895  141.4918  163.5693 H   0  0  0  0  0  0  0  0  0  0  0  0
  129.6174  139.6408  164.6563 H   0  0  0  0  0  0  0  0  0  0  0  0
  131.4708  138.0260  164.5635 H   0  0  0  0  0  0  0  0  0  0  0  0
  133.4655  138.5129  163.2078 H   0  0  0  0  0  0  0  0  0  0  0  0
  134.9737  141.7072  163.3084 H   0  0  0  0  0  0  0  0  0  0  0  0
  136.9647  142.1909  161.9479 H   0  0  0  0  0  0  0  0  0  0  0  0
  137.0494  141.4915  159.5909 H   0  0  0  0  0  0  0  0  0  0  0  0
  131.8948  139.9007  160.2482 H   0  0  0  0  0  0  0  0  0  0  0  0
  132.7664  139.8184  158.6984 H   0  0  0  0  0  0  0  0  0  0  0  0
  134.9551  137.4114  160.1342 H   0  0  0  0  0  0  0  0  0  0  0  0
  133.9020  136.4760  159.0457 H   0  0  0  0  0  0  0  0  0  0  0  0
  134.5447  138.0522  158.5251 H   0  0  0  0  0  0  0  0  0  0  0  0
  133.3345  135.7131  160.8286 H   0  0  0  0  0  0  0  0  0  0  0  0
  131.8113  135.6356  161.7465 H   0  0  0  0  0  0  0  0  0  0  0  0
  132.6575  133.7260  158.6237 H   0  0  0  0  0  0  0  0  0  0  0  0
  132.9195  133.7087  160.3887 H   0  0  0  0  0  0  0  0  0  0  0  0
  131.1183  132.0378  159.0818 H   0  0  0  0  0  0  0  0  0  0  0  0
  130.9315  132.5448  160.7926 H   0  0  0  0  0  0  0  0  0  0  0  0
  129.6548  133.7813  158.2881 H   0  0  0  0  0  0  0  0  0  0  0  0
  128.8751  133.3745  159.8535 H   0  0  0  0  0  0  0  0  0  0  0  0
  129.7621  137.2133  159.5555 H   0  0  0  0  0  0  0  0  0  0  0  0
  129.6655  136.1731  158.1144 H   0  0  0  0  0  0  0  0  0  0  0  0
  127.5332  135.8438  157.3075 H   0  0  0  0  0  0  0  0  0  0  0  0
  125.1083  135.5935  157.6494 H   0  0  0  0  0  0  0  0  0  0  0  0
  124.1666  135.6988  159.9218 H   0  0  0  0  0  0  0  0  0  0  0  0
  125.6493  136.0549  161.8543 H   0  0  0  0  0  0  0  0  0  0  0  0
  131.7313  142.2489  162.0280 H   0  0  0  0  0  0  0  0  0  0  0  0
  1  2  1  0
  1 36  1  0
  1 37  1  0
  1 38  1  0
  2 35  2  0
  2  3  1  0
  3  4  2  0
  3 39  1  0
  4  5  1  0
  4 40  1  0
  5  6  2  0
  5 41  1  0
  6  7  1  0
  6 35  1  0
  7 13  1  0
  7  8  2  0
  8  9  1  0
  8 42  1  0
  9 10  2  0
  9 43  1  0
 10 11  1  0
 10 44  1  0
 11 12  1  0
 11 13  2  0
 13 14  1  0
 14 15  1  0
 14 45  1  0
 14 46  1  0
 15 16  1  0
 15 17  1  0
 16 47  1  0
 16 48  1  0
 16 49  1  0
 17 18  2  0
 17 19  1  0
 19 20  1  0
 19 50  1  0
 19 51  1  0
 20 21  1  6
 20 25  1  0
 20 22  1  0
 22 23  1  0
 22 52  1  0
 22 53  1  0
 23 24  1  0
 23 54  1  0
 23 55  1  0
 24 25  1  0
 24 56  1  0
 24 57  1  0
 25 26  1  1
 25 27  1  0
 27 28  1  0
 27 58  1  0
 27 59  1  0
 28 33  1  0
 28 29  2  0
 29 30  1  0
 29 60  1  0
 30 31  2  0
 30 61  1  0
 31 32  1  0
 31 62  1  0
 32 33  2  0
 32 63  1  0
 33 34  1  0
 35 64  1  0
M  CHG  1  20   1
M  END
>  <DOCK_score>  (1) 
-57.103329

>  <SMILES>  (1) 
Cc1cccc(-c2cccc(F)c2CN(C)C(=O)C[NH+]2CCC[C@@H]2Cc2ccccc2F)c1

$$$$
