CCc1ccc(-c2c[nH]c(N[C@H](CCBr)c3ccc(CC)cc3)[nH+]2)cc1
     RDKit          3D

 53 55  0  0  1  0  0  0  0  0999 V2000
  130.3842  128.5824  151.5677 C   0  0  0  0  0  0  0  0  0  0  0  0
  131.5060  129.5564  151.9331 C   0  0  0  0  0  0  0  0  0  0  0  0
  131.1499  130.2777  153.2075 C   0  0  0  0  0  0  0  0  0  0  0  0
  131.5272  129.7473  154.4275 C   0  0  0  0  0  0  0  0  0  0  0  0
  131.2088  130.4062  155.5977 C   0  0  0  0  0  0  0  0  0  0  0  0
  130.4958  131.6026  155.5487 C   0  0  0  0  0  0  0  0  0  0  0  0
  130.1458  132.3126  156.8031 C   0  0  0  0  0  0  0  0  0  0  0  0
  129.3962  131.8165  157.8185 C   0  0  0  0  0  0  0  0  0  0  0  0
  129.3213  132.7990  158.7756 N   0  0  0  0  0  0  0  0  0  0  0  0
  128.8512  132.7417  159.6222 H   0  0  0  0  0  0  0  0  0  0  0  0
  130.0279  133.8677  158.3168 C   0  0  0  0  0  0  0  0  0  0  0  0
  130.1995  135.0679  158.9850 N   0  0  0  0  0  0  0  0  0  0  0  0
  129.1621  135.5524  159.8989 C   0  0  2  0  0  0  0  0  0  0  0  0
  129.0130  134.8255  160.6973 H   0  0  0  0  0  0  0  0  0  0  0  0
  127.8528  135.7412  159.1301 C   0  0  0  0  0  0  0  0  0  0  0  0
  126.7693  136.2470  160.0844 C   0  0  0  0  0  0  0  0  0  0  0  0
  126.5003  134.9361  161.5247 Br  0  0  0  0  0  0  0  0  0  0  0  0
  129.5906  136.8697  160.4924 C   0  0  0  0  0  0  0  0  0  0  0  0
  129.8403  137.9507  159.6677 C   0  0  0  0  0  0  0  0  0  0  0  0
  130.2297  139.1601  160.2124 C   0  0  0  0  0  0  0  0  0  0  0  0
  130.3774  139.2861  161.5811 C   0  0  0  0  0  0  0  0  0  0  0  0
  130.8064  140.6032  162.1745 C   0  0  0  0  0  0  0  0  0  0  0  0
  132.3332  140.6499  162.2624 C   0  0  0  0  0  0  0  0  0  0  0  0
  130.1322  138.2038  162.4053 C   0  0  0  0  0  0  0  0  0  0  0  0
  129.7393  136.9955  161.8609 C   0  0  0  0  0  0  0  0  0  0  0  0
  130.5240  133.5712  157.1404 N   0  0  0  0  0  0  0  0  0  0  0  0
  131.0719  134.1586  156.5967 H   0  0  0  0  0  0  0  0  0  0  0  0
  130.1131  132.1299  154.3165 C   0  0  0  0  0  0  0  0  0  0  0  0
  130.4419  131.4653  153.1525 C   0  0  0  0  0  0  0  0  0  0  0  0
  129.4552  129.1344  151.4255 H   0  0  0  0  0  0  0  0  0  0  0  0
  130.6417  128.0609  150.6459 H   0  0  0  0  0  0  0  0  0  0  0  0
  130.2568  127.8576  152.3717 H   0  0  0  0  0  0  0  0  0  0  0  0
  132.4348  129.0050  152.0748 H   0  0  0  0  0  0  0  0  0  0  0  0
  131.6332  130.2818  151.1285 H   0  0  0  0  0  0  0  0  0  0  0  0
  132.0756  128.8176  154.4646 H   0  0  0  0  0  0  0  0  0  0  0  0
  131.5080  129.9933  156.5497 H   0  0  0  0  0  0  0  0  0  0  0  0
  128.9443  130.8367  157.8654 H   0  0  0  0  0  0  0  0  0  0  0  0
  131.0068  135.5881  158.8482 H   0  0  0  0  0  0  0  0  0  0  0  0
  128.0019  136.4680  158.3316 H   0  0  0  0  0  0  0  0  0  0  0  0
  127.5429  134.7883  158.7007 H   0  0  0  0  0  0  0  0  0  0  0  0
  127.0792  137.1999  160.5138 H   0  0  0  0  0  0  0  0  0  0  0  0
  125.8366  136.3817  159.5367 H   0  0  0  0  0  0  0  0  0  0  0  0
  129.7285  137.8511  158.5982 H   0  0  0  0  0  0  0  0  0  0  0  0
  130.4216  140.0055  159.5685 H   0  0  0  0  0  0  0  0  0  0  0  0
  130.4538  141.4185  161.5426 H   0  0  0  0  0  0  0  0  0  0  0  0
  130.3816  140.7075  163.1729 H   0  0  0  0  0  0  0  0  0  0  0  0
  132.6434  141.6027  162.6916 H   0  0  0  0  0  0  0  0  0  0  0  0
  132.6858  139.8348  162.8942 H   0  0  0  0  0  0  0  0  0  0  0  0
  132.7579  140.5457  161.2640 H   0  0  0  0  0  0  0  0  0  0  0  0
  130.2481  138.3022  163.4745 H   0  0  0  0  0  0  0  0  0  0  0  0
  129.5479  136.1498  162.5049 H   0  0  0  0  0  0  0  0  0  0  0  0
  129.5602  133.0566  154.2727 H   0  0  0  0  0  0  0  0  0  0  0  0
  130.1457  131.8727  152.1971 H   0  0  0  0  0  0  0  0  0  0  0  0
  1  2  1  0
  1 30  1  0
  1 31  1  0
  1 32  1  0
  2  3  1  0
  2 33  1  0
  2 34  1  0
  3 29  2  0
  3  4  1  0
  4  5  2  0
  4 35  1  0
  5  6  1  0
  5 36  1  0
  6  7  1  0
  6 28  2  0
  7 26  1  0
  7  8  2  0
  8  9  1  0
  8 37  1  0
  9 10  1  0
  9 11  1  0
 11 12  1  0
 11 26  2  0
 12 13  1  0
 12 38  1  0
 13 14  1  1
 13 15  1  0
 13 18  1  0
 15 16  1  0
 15 39  1  0
 15 40  1  0
 16 17  1  0
 16 41  1  0
 16 42  1  0
 18 25  1  0
 18 19  2  0
 19 20  1  0
 19 43  1  0
 20 21  2  0
 20 44  1  0
 21 22  1  0
 21 24  1  0
 22 23  1  0
 22 45  1  0
 22 46  1  0
 23 47  1  0
 23 48  1  0
 23 49  1  0
 24 25  2  0
 24 50  1  0
 25 51  1  0
 26 27  1  0
 28 29  1  0
 28 52  1  0
 29 53  1  0
M  CHG  1  26   1
M  END
>  <DOCK_score>  (1) 
-57.939503

>  <SMILES>  (1) 
CCc1ccc(-c2c[nH]c(N[C@H](CCBr)c3ccc(CC)cc3)[nH+]2)cc1

$$$$
