CC(C[NH2+][C@H]1C[C@H]2C=C[C@@H]1CC2)(NCc1cccc2c1NC(=O)CO2)c1ccccc1
     RDKit          3D

 63 67  0  0  1  0  0  0  0  0999 V2000
  128.6591  136.6609  159.2327 C   0  0  0  0  0  0  0  0  0  0  0  0
  129.5353  135.6400  159.9611 C   0  0  2  0  0  0  0  0  0  0  0  0
  130.6226  136.3721  160.7504 C   0  0  0  0  0  0  0  0  0  0  0  0
  131.1327  137.4962  159.9541 N   0  0  0  0  0  0  0  0  0  0  0  0
  130.3779  138.1340  159.7504 H   0  0  0  0  0  0  0  0  0  0  0  0
  131.5211  137.1478  159.0904 H   0  0  0  0  0  0  0  0  0  0  0  0
  132.1766  138.1991  160.7119 C   0  0  1  0  0  0  0  0  0  0  0  0
  131.8842  138.2625  161.7600 H   0  0  0  0  0  0  0  0  0  0  0  0
  133.4881  137.4289  160.5919 C   0  0  0  0  0  0  0  0  0  0  0  0
  134.5541  138.3266  159.9499 C   0  0  1  0  0  0  0  0  0  0  0  0
  135.4921  137.7888  159.8115 H   0  0  0  0  0  0  0  0  0  0  0  0
  134.0103  138.8126  158.6143 C   0  0  0  0  0  0  0  0  0  0  0  0
  132.8620  139.4809  158.7154 C   0  0  0  0  0  0  0  0  0  0  0  0
  132.3558  139.6135  160.1445 C   0  0  2  0  0  0  0  0  0  0  0  0
  131.4138  140.1613  160.1707 H   0  0  0  0  0  0  0  0  0  0  0  0
  133.4319  140.3453  160.9573 C   0  0  0  0  0  0  0  0  0  0  0  0
  134.7594  139.5914  160.8428 C   0  0  0  0  0  0  0  0  0  0  0  0
  130.1618  134.7438  158.9801 N   0  0  0  0  0  0  0  0  0  0  0  0
  129.1459  134.0224  158.2021 C   0  0  0  0  0  0  0  0  0  0  0  0
  129.8247  133.1151  157.2086 C   0  0  0  0  0  0  0  0  0  0  0  0
  130.1361  133.5808  155.9438 C   0  0  0  0  0  0  0  0  0  0  0  0
  130.7589  132.7504  155.0309 C   0  0  0  0  0  0  0  0  0  0  0  0
  131.0754  131.4483  155.3755 C   0  0  0  0  0  0  0  0  0  0  0  0
  130.7677  130.9755  156.6388 C   0  0  0  0  0  0  0  0  0  0  0  0
  130.1435  131.8146  157.5612 C   0  0  0  0  0  0  0  0  0  0  0  0
  129.8408  131.3237  158.8392 N   0  0  0  0  0  0  0  0  0  0  0  0
  130.4326  130.1846  159.2599 C   0  0  0  0  0  0  0  0  0  0  0  0
  130.1634  129.7251  160.3498 O   0  0  0  0  0  0  0  0  0  0  0  0
  131.4293  129.4869  158.3697 C   0  0  0  0  0  0  0  0  0  0  0  0
  131.0736  129.6995  156.9956 O   0  0  0  0  0  0  0  0  0  0  0  0
  128.6848  134.8328  160.9078 C   0  0  0  0  0  0  0  0  0  0  0  0
  127.3287  135.0832  161.0032 C   0  0  0  0  0  0  0  0  0  0  0  0
  126.5479  134.3401  161.8687 C   0  0  0  0  0  0  0  0  0  0  0  0
  127.1247  133.3519  162.6446 C   0  0  0  0  0  0  0  0  0  0  0  0
  128.4816  133.1051  162.5530 C   0  0  0  0  0  0  0  0  0  0  0  0
  129.2618  133.8457  161.6848 C   0  0  0  0  0  0  0  0  0  0  0  0
  129.2742  137.2448  158.5480 H   0  0  0  0  0  0  0  0  0  0  0  0
  127.8844  136.1395  158.6704 H   0  0  0  0  0  0  0  0  0  0  0  0
  128.1944  137.3259  159.9605 H   0  0  0  0  0  0  0  0  0  0  0  0
  131.4380  135.6830  160.9704 H   0  0  0  0  0  0  0  0  0  0  0  0
  130.2032  136.7485  161.6834 H   0  0  0  0  0  0  0  0  0  0  0  0
  133.3362  136.5452  159.9724 H   0  0  0  0  0  0  0  0  0  0  0  0
  133.8196  137.1242  161.5846 H   0  0  0  0  0  0  0  0  0  0  0  0
  134.5059  138.6292  157.6725 H   0  0  0  0  0  0  0  0  0  0  0  0
  132.3396  139.8900  157.8633 H   0  0  0  0  0  0  0  0  0  0  0  0
  133.5542  141.3569  160.5705 H   0  0  0  0  0  0  0  0  0  0  0  0
  133.1291  140.3905  162.0035 H   0  0  0  0  0  0  0  0  0  0  0  0
  135.5116  140.2453  160.4016 H   0  0  0  0  0  0  0  0  0  0  0  0
  135.0864  139.2789  161.8344 H   0  0  0  0  0  0  0  0  0  0  0  0
  130.7879  135.2523  158.3740 H   0  0  0  0  0  0  0  0  0  0  0  0
  128.5280  133.4273  158.8745 H   0  0  0  0  0  0  0  0  0  0  0  0
  128.5190  134.7385  157.6708 H   0  0  0  0  0  0  0  0  0  0  0  0
  129.8923  134.5964  155.6690 H   0  0  0  0  0  0  0  0  0  0  0  0
  130.9996  133.1195  154.0450 H   0  0  0  0  0  0  0  0  0  0  0  0
  131.5621  130.8024  154.6598 H   0  0  0  0  0  0  0  0  0  0  0  0
  129.2163  131.7951  159.4126 H   0  0  0  0  0  0  0  0  0  0  0  0
  132.4262  129.8851  158.5592 H   0  0  0  0  0  0  0  0  0  0  0  0
  131.4193  128.4178  158.5819 H   0  0  0  0  0  0  0  0  0  0  0  0
  126.8786  135.8573  160.3994 H   0  0  0  0  0  0  0  0  0  0  0  0
  125.4877  134.5332  161.9406 H   0  0  0  0  0  0  0  0  0  0  0  0
  126.5150  132.7732  163.3228 H   0  0  0  0  0  0  0  0  0  0  0  0
  128.9323  132.3336  163.1595 H   0  0  0  0  0  0  0  0  0  0  0  0
  130.3220  133.6528  161.6132 H   0  0  0  0  0  0  0  0  0  0  0  0
  1 37  1  0
  1 38  1  0
  1 39  1  0
  2  1  1  0
  2  3  1  0
  2 18  1  6
  2 31  1  0
  3  4  1  0
  3 40  1  0
  3 41  1  0
  4  5  1  0
  4  6  1  0
  4  7  1  0
  7  8  1  1
  7 14  1  0
  7  9  1  0
  9 10  1  0
  9 42  1  0
  9 43  1  0
 10 11  1  6
 10 17  1  0
 10 12  1  0
 12 13  2  0
 12 44  1  0
 13 14  1  0
 13 45  1  0
 14 15  1  6
 14 16  1  0
 16 17  1  0
 16 46  1  0
 16 47  1  0
 17 48  1  0
 17 49  1  0
 18 19  1  0
 18 50  1  0
 19 20  1  0
 19 51  1  0
 19 52  1  0
 20 25  1  0
 20 21  2  0
 21 22  1  0
 21 53  1  0
 22 23  2  0
 22 54  1  0
 23 24  1  0
 23 55  1  0
 24 30  1  0
 24 25  2  0
 25 26  1  0
 26 27  1  0
 26 56  1  0
 27 28  2  0
 27 29  1  0
 29 30  1  0
 29 57  1  0
 29 58  1  0
 31 36  1  0
 31 32  2  0
 32 33  1  0
 32 59  1  0
 33 34  2  0
 33 60  1  0
 34 35  1  0
 34 61  1  0
 35 36  2  0
 35 62  1  0
 36 63  1  0
M  CHG  1   4   1
M  END
>  <DOCK_score>  (1) 
-56.776451

>  <SMILES>  (1) 
CC(C[NH2+][C@H]1C[C@H]2C=C[C@@H]1CC2)(NCc1cccc2c1NC(=O)CO2)c1ccccc1

$$$$
