c1ccc(CCCSc2ccc([C@H](Nc3[nH]cc(-c4cccnc4)[nH+]3)c3cccnc3)cc2)cc1
     RDKit          3D

 63 67  0  0  1  0  0  0  0  0999 V2000
  140.2623  139.0226  170.0671 C   0  0  0  0  0  0  0  0  0  0  0  0
  139.1861  138.2339  170.4285 C   0  0  0  0  0  0  0  0  0  0  0  0
  138.0793  138.1552  169.6041 C   0  0  0  0  0  0  0  0  0  0  0  0
  138.0487  138.8653  168.4184 C   0  0  0  0  0  0  0  0  0  0  0  0
  136.8422  138.7793  167.5195 C   0  0  0  0  0  0  0  0  0  0  0  0
  137.0229  137.6242  166.5326 C   0  0  0  0  0  0  0  0  0  0  0  0
  135.7980  137.5368  165.6200 C   0  0  0  0  0  0  0  0  0  0  0  0
  136.0122  136.1673  164.4499 S   0  0  0  0  0  0  0  0  0  0  0  0
  134.5295  136.2223  163.4995 C   0  0  0  0  0  0  0  0  0  0  0  0
  134.5898  136.4216  162.1255 C   0  0  0  0  0  0  0  0  0  0  0  0
  133.4259  136.4638  161.3838 C   0  0  0  0  0  0  0  0  0  0  0  0
  132.2010  136.3075  162.0067 C   0  0  0  0  0  0  0  0  0  0  0  0
  130.9329  136.3541  161.1938 C   0  0  2  0  0  0  0  0  0  0  0  0
  130.1767  135.7256  161.6639 H   0  0  0  0  0  0  0  0  0  0  0  0
  131.2026  135.8635  159.8399 N   0  0  0  0  0  0  0  0  0  0  0  0
  131.0641  134.5167  159.5511 C   0  0  0  0  0  0  0  0  0  0  0  0
  130.6914  133.5509  160.4347 N   0  0  0  0  0  0  0  0  0  0  0  0
  130.4767  133.6812  161.3716 H   0  0  0  0  0  0  0  0  0  0  0  0
  130.6727  132.3578  159.7539 C   0  0  0  0  0  0  0  0  0  0  0  0
  131.0419  132.6273  158.4772 C   0  0  0  0  0  0  0  0  0  0  0  0
  131.1678  131.6395  157.3779 C   0  0  0  0  0  0  0  0  0  0  0  0
  130.9327  132.0177  156.0527 C   0  0  0  0  0  0  0  0  0  0  0  0
  131.0678  131.0598  155.0629 C   0  0  0  0  0  0  0  0  0  0  0  0
  131.4177  129.7684  155.4142 C   0  0  0  0  0  0  0  0  0  0  0  0
  131.6284  129.4399  156.6741 N   0  0  0  0  0  0  0  0  0  0  0  0
  131.5166  130.3183  157.6496 C   0  0  0  0  0  0  0  0  0  0  0  0
  131.2757  133.9606  158.3834 N   0  0  0  0  0  0  0  0  0  0  0  0
  131.5549  134.4275  157.5803 H   0  0  0  0  0  0  0  0  0  0  0  0
  130.4333  137.7740  161.1233 C   0  0  0  0  0  0  0  0  0  0  0  0
  131.2207  138.7684  160.5629 C   0  0  0  0  0  0  0  0  0  0  0  0
  130.7204  140.0605  160.5198 C   0  0  0  0  0  0  0  0  0  0  0  0
  129.4620  140.3129  161.0330 C   0  0  0  0  0  0  0  0  0  0  0  0
  128.7408  139.3422  161.5586 N   0  0  0  0  0  0  0  0  0  0  0  0
  129.1846  138.1017  161.6163 C   0  0  0  0  0  0  0  0  0  0  0  0
  132.1368  136.1143  163.3747 C   0  0  0  0  0  0  0  0  0  0  0  0
  133.2968  136.0661  164.1221 C   0  0  0  0  0  0  0  0  0  0  0  0
  139.1271  139.6499  168.0546 C   0  0  0  0  0  0  0  0  0  0  0  0
  140.2318  139.7327  168.8816 C   0  0  0  0  0  0  0  0  0  0  0  0
  141.1272  139.0839  170.7111 H   0  0  0  0  0  0  0  0  0  0  0  0
  139.2102  137.6789  171.3546 H   0  0  0  0  0  0  0  0  0  0  0  0
  137.2386  137.5388  169.8861 H   0  0  0  0  0  0  0  0  0  0  0  0
  136.7320  139.7136  166.9690 H   0  0  0  0  0  0  0  0  0  0  0  0
  135.9512  138.6058  168.1228 H   0  0  0  0  0  0  0  0  0  0  0  0
  137.1332  136.6899  167.0831 H   0  0  0  0  0  0  0  0  0  0  0  0
  137.9138  137.7977  165.9292 H   0  0  0  0  0  0  0  0  0  0  0  0
  135.6877  138.4711  165.0694 H   0  0  0  0  0  0  0  0  0  0  0  0
  134.9070  137.3634  166.2233 H   0  0  0  0  0  0  0  0  0  0  0  0
  135.5460  136.5437  161.6384 H   0  0  0  0  0  0  0  0  0  0  0  0
  133.4721  136.6186  160.3159 H   0  0  0  0  0  0  0  0  0  0  0  0
  131.4783  136.4825  159.1457 H   0  0  0  0  0  0  0  0  0  0  0  0
  130.4168  131.3900  160.1590 H   0  0  0  0  0  0  0  0  0  0  0  0
  130.6565  133.0326  155.8071 H   0  0  0  0  0  0  0  0  0  0  0  0
  130.8976  131.3166  154.0277 H   0  0  0  0  0  0  0  0  0  0  0  0
  131.5202  129.0175  154.6449 H   0  0  0  0  0  0  0  0  0  0  0  0
  131.6974  130.0113  158.6693 H   0  0  0  0  0  0  0  0  0  0  0  0
  132.2005  138.5417  160.1693 H   0  0  0  0  0  0  0  0  0  0  0  0
  131.3063  140.8599  160.0909 H   0  0  0  0  0  0  0  0  0  0  0  0
  129.0647  141.3168  161.0029 H   0  0  0  0  0  0  0  0  0  0  0  0
  128.5671  137.3337  162.0583 H   0  0  0  0  0  0  0  0  0  0  0  0
  131.1782  135.9971  163.8584 H   0  0  0  0  0  0  0  0  0  0  0  0
  133.2462  135.9115  165.1897 H   0  0  0  0  0  0  0  0  0  0  0  0
  139.1051  140.2011  167.1262 H   0  0  0  0  0  0  0  0  0  0  0  0
  141.0728  140.3486  168.5990 H   0  0  0  0  0  0  0  0  0  0  0  0
  1 38  2  0
  1  2  1  0
  1 39  1  0
  2  3  2  0
  2 40  1  0
  3  4  1  0
  3 41  1  0
  4  5  1  0
  4 37  2  0
  5  6  1  0
  5 42  1  0
  5 43  1  0
  6  7  1  0
  6 44  1  0
  6 45  1  0
  7  8  1  0
  7 46  1  0
  7 47  1  0
  8  9  1  0
  9 36  1  0
  9 10  2  0
 10 11  1  0
 10 48  1  0
 11 12  2  0
 11 49  1  0
 12 13  1  0
 12 35  1  0
 13 14  1  1
 13 15  1  0
 13 29  1  0
 15 50  1  0
 16 15  1  0
 16 27  2  0
 16 17  1  0
 17 18  1  0
 17 19  1  0
 19 20  2  0
 19 51  1  0
 20 21  1  0
 20 27  1  0
 21 26  1  0
 21 22  2  0
 22 23  1  0
 22 52  1  0
 23 24  2  0
 23 53  1  0
 24 25  1  0
 24 54  1  0
 25 26  2  0
 26 55  1  0
 27 28  1  0
 29 34  1  0
 29 30  2  0
 30 31  1  0
 30 56  1  0
 31 32  2  0
 31 57  1  0
 32 33  1  0
 32 58  1  0
 33 34  2  0
 34 59  1  0
 35 36  2  0
 35 60  1  0
 36 61  1  0
 37 38  1  0
 37 62  1  0
 38 63  1  0
M  CHG  1  27   1
M  END
>  <DOCK_score>  (1) 
-61.243008

>  <SMILES>  (1) 
c1ccc(CCCSc2ccc([C@H](Nc3[nH]cc(-c4cccnc4)[nH+]3)c3cccnc3)cc2)cc1

$$$$
