Cc1ccc2[nH]cc(C(O)c3ccc([C@H]([NH3+])C(=O)Nc4cccc(O)c4)cc3)c2c1
     RDKit          3D

 54 57  0  0  1  0  0  0  0  0999 V2000
  133.8900  140.5218  161.0837 C   0  0  0  0  0  0  0  0  0  0  0  0
  134.7153  139.4034  161.6659 C   0  0  0  0  0  0  0  0  0  0  0  0
  136.0979  139.4317  161.5425 C   0  0  0  0  0  0  0  0  0  0  0  0
  136.8713  138.4231  162.0737 C   0  0  0  0  0  0  0  0  0  0  0  0
  136.2625  137.3586  162.7310 C   0  0  0  0  0  0  0  0  0  0  0  0
  136.7430  136.2221  163.3419 N   0  0  0  0  0  0  0  0  0  0  0  0
  137.6795  135.9777  163.4066 H   0  0  0  0  0  0  0  0  0  0  0  0
  135.7026  135.4887  163.8440 C   0  0  0  0  0  0  0  0  0  0  0  0
  134.5396  136.1065  163.5838 C   0  0  0  0  0  0  0  0  0  0  0  0
  133.1639  135.6258  163.9672 C   0  0  1  0  0  0  0  0  0  0  0  0
  132.5382  136.5956  164.8100 O   0  0  0  0  0  0  0  0  0  0  0  0
  132.3349  135.4314  162.7239 C   0  0  0  0  0  0  0  0  0  0  0  0
  132.7434  134.5352  161.7539 C   0  0  0  0  0  0  0  0  0  0  0  0
  131.9828  134.3564  160.6136 C   0  0  0  0  0  0  0  0  0  0  0  0
  130.8134  135.0738  160.4434 C   0  0  0  0  0  0  0  0  0  0  0  0
  129.9842  134.8789  159.2002 C   0  0  2  0  0  0  0  0  0  0  0  0
  130.4616  134.1396  158.5572 H   0  0  0  0  0  0  0  0  0  0  0  0
  129.8733  136.1549  158.4806 N   0  0  0  0  0  0  0  0  0  0  0  0
  129.4313  136.8394  159.0759 H   0  0  0  0  0  0  0  0  0  0  0  0
  130.7941  136.4772  158.2236 H   0  0  0  0  0  0  0  0  0  0  0  0
  129.3181  136.0245  157.6483 H   0  0  0  0  0  0  0  0  0  0  0  0
  128.6087  134.3975  159.5841 C   0  0  0  0  0  0  0  0  0  0  0  0
  127.6321  135.0528  159.2875 O   0  0  0  0  0  0  0  0  0  0  0  0
  128.4638  133.2388  160.2571 N   0  0  0  0  0  0  0  0  0  0  0  0
  127.1867  132.7919  160.6136 C   0  0  0  0  0  0  0  0  0  0  0  0
  126.9302  131.4305  160.7177 C   0  0  0  0  0  0  0  0  0  0  0  0
  125.6696  130.9893  161.0696 C   0  0  0  0  0  0  0  0  0  0  0  0
  124.6622  131.9004  161.3256 C   0  0  0  0  0  0  0  0  0  0  0  0
  124.9112  133.2613  161.2176 C   0  0  0  0  0  0  0  0  0  0  0  0
  123.9181  134.1558  161.4636 O   0  0  0  0  0  0  0  0  0  0  0  0
  126.1750  133.7079  160.8642 C   0  0  0  0  0  0  0  0  0  0  0  0
  130.4076  135.9739  161.4108 C   0  0  0  0  0  0  0  0  0  0  0  0
  131.1662  136.1498  162.5529 C   0  0  0  0  0  0  0  0  0  0  0  0
  134.8613  137.3334  162.8507 C   0  0  0  0  0  0  0  0  0  0  0  0
  134.0970  138.3699  162.3111 C   0  0  0  0  0  0  0  0  0  0  0  0
  133.7599  141.3046  161.8311 H   0  0  0  0  0  0  0  0  0  0  0  0
  134.3987  140.9330  160.2117 H   0  0  0  0  0  0  0  0  0  0  0  0
  132.9142  140.1371  160.7871 H   0  0  0  0  0  0  0  0  0  0  0  0
  136.5721  140.2556  161.0301 H   0  0  0  0  0  0  0  0  0  0  0  0
  137.9460  138.4531  161.9710 H   0  0  0  0  0  0  0  0  0  0  0  0
  135.8025  134.5519  164.3719 H   0  0  0  0  0  0  0  0  0  0  0  0
  133.2455  134.6791  164.5012 H   0  0  0  0  0  0  0  0  0  0  0  0
  132.4326  137.4644  164.3988 H   0  0  0  0  0  0  0  0  0  0  0  0
  133.6566  133.9742  161.8873 H   0  0  0  0  0  0  0  0  0  0  0  0
  132.3020  133.6562  159.8558 H   0  0  0  0  0  0  0  0  0  0  0  0
  129.2448  132.7148  160.4942 H   0  0  0  0  0  0  0  0  0  0  0  0
  127.7169  130.7166  160.5228 H   0  0  0  0  0  0  0  0  0  0  0  0
  125.4718  129.9306  161.1497 H   0  0  0  0  0  0  0  0  0  0  0  0
  123.6788  131.5527  161.6057 H   0  0  0  0  0  0  0  0  0  0  0  0
  124.1867  135.0792  161.3630 H   0  0  0  0  0  0  0  0  0  0  0  0
  126.3720  134.7668  160.7843 H   0  0  0  0  0  0  0  0  0  0  0  0
  129.4964  136.5376  161.2758 H   0  0  0  0  0  0  0  0  0  0  0  0
  130.8472  136.8502  163.3106 H   0  0  0  0  0  0  0  0  0  0  0  0
  133.0211  138.3547  162.4031 H   0  0  0  0  0  0  0  0  0  0  0  0
  1  2  1  0
  1 36  1  0
  1 37  1  0
  1 38  1  0
  2 35  2  0
  2  3  1  0
  3  4  2  0
  3 39  1  0
  4  5  1  0
  4 40  1  0
  5 34  2  0
  5  6  1  0
  6  7  1  0
  6  8  1  0
  8  9  2  0
  8 41  1  0
  9 10  1  0
  9 34  1  0
 10 11  1  0
 10 12  1  0
 10 42  1  1
 11 43  1  0
 12 33  1  0
 12 13  2  0
 13 14  1  0
 13 44  1  0
 14 15  2  0
 14 45  1  0
 15 16  1  0
 15 32  1  0
 16 17  1  6
 16 18  1  0
 16 22  1  0
 18 19  1  0
 18 20  1  0
 18 21  1  0
 22 23  2  0
 22 24  1  0
 24 25  1  0
 24 46  1  0
 25 31  1  0
 25 26  2  0
 26 27  1  0
 26 47  1  0
 27 28  2  0
 27 48  1  0
 28 29  1  0
 28 49  1  0
 29 30  1  0
 29 31  2  0
 30 50  1  0
 31 51  1  0
 32 33  2  0
 32 52  1  0
 33 53  1  0
 34 35  1  0
 35 54  1  0
M  CHG  1  18   1
M  END
>  <DOCK_score>  (1) 
-42.38279

>  <SMILES>  (1) 
Cc1ccc2[nH]cc(C(O)c3ccc([C@H]([NH3+])C(=O)Nc4cccc(O)c4)cc3)c2c1

$$$$
