CCc1ccc(-c2c[nH]c(N[C@H](c3ccc(Cl)cc3)c3ccc(-c4ccnn4C)cc3)[nH+]2)cc1
     RDKit          3D

 61 65  0  0  1  0  0  0  0  0999 V2000
  129.8463  128.4851  150.9277 C   0  0  0  0  0  0  0  0  0  0  0  0
  130.8905  129.5916  151.0880 C   0  0  0  0  0  0  0  0  0  0  0  0
  130.8231  130.1474  152.4872 C   0  0  0  0  0  0  0  0  0  0  0  0
  131.5981  129.5893  153.4878 C   0  0  0  0  0  0  0  0  0  0  0  0
  131.5449  130.0973  154.7699 C   0  0  0  0  0  0  0  0  0  0  0  0
  130.6998  131.1676  155.0580 C   0  0  0  0  0  0  0  0  0  0  0  0
  130.6340  131.7144  156.4352 C   0  0  0  0  0  0  0  0  0  0  0  0
  130.2753  131.0298  157.5494 C   0  0  0  0  0  0  0  0  0  0  0  0
  130.3508  131.9111  158.6004 N   0  0  0  0  0  0  0  0  0  0  0  0
  130.1536  131.7151  159.5298 H   0  0  0  0  0  0  0  0  0  0  0  0
  130.7536  133.1096  158.0973 C   0  0  0  0  0  0  0  0  0  0  0  0
  130.9529  134.2664  158.8313 N   0  0  0  0  0  0  0  0  0  0  0  0
  130.7272  134.2635  160.2788 C   0  0  2  0  0  0  0  0  0  0  0  0
  131.1008  133.3314  160.7028 H   0  0  0  0  0  0  0  0  0  0  0  0
  129.2512  134.3861  160.5573 C   0  0  0  0  0  0  0  0  0  0  0  0
  128.7120  133.8088  161.6918 C   0  0  0  0  0  0  0  0  0  0  0  0
  127.3594  133.9258  161.9507 C   0  0  0  0  0  0  0  0  0  0  0  0
  126.5432  134.6108  161.0684 C   0  0  0  0  0  0  0  0  0  0  0  0
  124.8427  134.7514  161.3889 Cl  0  0  0  0  0  0  0  0  0  0  0  0
  127.0824  135.1833  159.9302 C   0  0  0  0  0  0  0  0  0  0  0  0
  128.4362  135.0706  159.6752 C   0  0  0  0  0  0  0  0  0  0  0  0
  131.4545  135.4265  160.9029 C   0  0  0  0  0  0  0  0  0  0  0  0
  131.1461  136.7188  160.5174 C   0  0  0  0  0  0  0  0  0  0  0  0
  131.8050  137.7880  161.0887 C   0  0  0  0  0  0  0  0  0  0  0  0
  132.7918  137.5632  162.0488 C   0  0  0  0  0  0  0  0  0  0  0  0
  133.5062  138.7051  162.6615 C   0  0  0  0  0  0  0  0  0  0  0  0
  133.1394  139.3764  163.7936 C   0  0  0  0  0  0  0  0  0  0  0  0
  134.0826  140.3787  164.0211 C   0  0  0  0  0  0  0  0  0  0  0  0
  134.9850  140.3252  163.0743 N   0  0  0  0  0  0  0  0  0  0  0  0
  134.6550  139.2782  162.2042 N   0  0  0  0  0  0  0  0  0  0  0  0
  135.4084  138.8735  161.0147 C   0  0  0  0  0  0  0  0  0  0  0  0
  133.1018  136.2573  162.4295 C   0  0  0  0  0  0  0  0  0  0  0  0
  132.4317  135.1969  161.8550 C   0  0  0  0  0  0  0  0  0  0  0  0
  130.9275  132.9867  156.8039 N   0  0  0  0  0  0  0  0  0  0  0  0
  131.2173  133.6931  156.2057 H   0  0  0  0  0  0  0  0  0  0  0  0
  129.9169  131.7222  154.0470 C   0  0  0  0  0  0  0  0  0  0  0  0
  129.9824  131.2097  152.7673 C   0  0  0  0  0  0  0  0  0  0  0  0
  128.8523  128.8939  151.1090 H   0  0  0  0  0  0  0  0  0  0  0  0
  129.8948  128.0834  149.9156 H   0  0  0  0  0  0  0  0  0  0  0  0
  130.0479  127.6891  151.6446 H   0  0  0  0  0  0  0  0  0  0  0  0
  131.8842  129.1831  150.9066 H   0  0  0  0  0  0  0  0  0  0  0  0
  130.6885  130.3880  150.3709 H   0  0  0  0  0  0  0  0  0  0  0  0
  132.2492  128.7570  153.2644 H   0  0  0  0  0  0  0  0  0  0  0  0
  132.1541  129.6639  155.5493 H   0  0  0  0  0  0  0  0  0  0  0  0
  129.9855  129.9906  157.6006 H   0  0  0  0  0  0  0  0  0  0  0  0
  131.2420  135.0789  158.3871 H   0  0  0  0  0  0  0  0  0  0  0  0
  129.3486  133.2704  162.3783 H   0  0  0  0  0  0  0  0  0  0  0  0
  126.9389  133.4786  162.8394 H   0  0  0  0  0  0  0  0  0  0  0  0
  126.4456  135.7178  159.2408 H   0  0  0  0  0  0  0  0  0  0  0  0
  128.8573  135.5178  158.7869 H   0  0  0  0  0  0  0  0  0  0  0  0
  130.3854  136.8913  159.7705 H   0  0  0  0  0  0  0  0  0  0  0  0
  131.5605  138.7967  160.7899 H   0  0  0  0  0  0  0  0  0  0  0  0
  132.2732  139.1680  164.4041 H   0  0  0  0  0  0  0  0  0  0  0  0
  134.0706  141.0810  164.8414 H   0  0  0  0  0  0  0  0  0  0  0  0
  134.9749  139.3444  160.1325 H   0  0  0  0  0  0  0  0  0  0  0  0
  136.4477  139.1852  161.1194 H   0  0  0  0  0  0  0  0  0  0  0  0
  135.3633  137.7897  160.9073 H   0  0  0  0  0  0  0  0  0  0  0  0
  133.8646  136.0770  163.1725 H   0  0  0  0  0  0  0  0  0  0  0  0
  132.6708  134.1856  162.1487 H   0  0  0  0  0  0  0  0  0  0  0  0
  129.2599  132.5513  154.2647 H   0  0  0  0  0  0  0  0  0  0  0  0
  129.3765  131.6389  151.9831 H   0  0  0  0  0  0  0  0  0  0  0  0
  1  2  1  0
  1 38  1  0
  1 39  1  0
  1 40  1  0
  2  3  1  0
  2 41  1  0
  2 42  1  0
  3 37  2  0
  3  4  1  0
  4  5  2  0
  4 43  1  0
  5  6  1  0
  5 44  1  0
  6  7  1  0
  6 36  2  0
  7 34  1  0
  7  8  2  0
  8  9  1  0
  8 45  1  0
  9 10  1  0
  9 11  1  0
 11 12  1  0
 11 34  2  0
 12 13  1  0
 12 46  1  0
 13 14  1  1
 13 15  1  0
 13 22  1  0
 15 21  1  0
 15 16  2  0
 16 17  1  0
 16 47  1  0
 17 18  2  0
 17 48  1  0
 18 19  1  0
 18 20  1  0
 20 21  2  0
 20 49  1  0
 21 50  1  0
 22 33  1  0
 22 23  2  0
 23 24  1  0
 23 51  1  0
 24 25  2  0
 24 52  1  0
 25 26  1  0
 25 32  1  0
 26 30  1  0
 26 27  2  0
 27 28  1  0
 27 53  1  0
 28 29  2  0
 28 54  1  0
 29 30  1  0
 30 31  1  0
 31 55  1  0
 31 56  1  0
 31 57  1  0
 32 33  2  0
 32 58  1  0
 33 59  1  0
 34 35  1  0
 36 37  1  0
 36 60  1  0
 37 61  1  0
M  CHG  1  34   1
M  END
>  <DOCK_score>  (1) 
-58.554729

>  <SMILES>  (1) 
CCc1ccc(-c2c[nH]c(N[C@H](c3ccc(Cl)cc3)c3ccc(-c4ccnn4C)cc3)[nH+]2)cc1

$$$$
