c1ccc([C@@H](Nc2[nH]cc(-c3cccnc3)[nH+]2)C2CCCCC2)cc1
     RDKit          3D

 50 53  0  0  1  0  0  0  0  0999 V2000
  125.5259  135.6707  157.5996 C   0  0  0  0  0  0  0  0  0  0  0  0
  125.4870  135.4470  158.9632 C   0  0  0  0  0  0  0  0  0  0  0  0
  126.6628  135.3853  159.6874 C   0  0  0  0  0  0  0  0  0  0  0  0
  127.8776  135.5469  159.0479 C   0  0  0  0  0  0  0  0  0  0  0  0
  129.1595  135.4795  159.8375 C   0  0  1  0  0  0  0  0  0  0  0  0
  129.0280  134.8099  160.6874 H   0  0  0  0  0  0  0  0  0  0  0  0
  130.2352  134.9753  158.9801 N   0  0  0  0  0  0  0  0  0  0  0  0
  130.1306  133.7207  158.4043 C   0  0  0  0  0  0  0  0  0  0  0  0
  129.4643  132.6586  158.9334 N   0  0  0  0  0  0  0  0  0  0  0  0
  128.9809  132.6446  159.7744 H   0  0  0  0  0  0  0  0  0  0  0  0
  129.6018  131.6102  158.0565 C   0  0  0  0  0  0  0  0  0  0  0  0
  130.3428  132.0630  157.0149 C   0  0  0  0  0  0  0  0  0  0  0  0
  130.7420  131.2781  155.8212 C   0  0  0  0  0  0  0  0  0  0  0  0
  130.3464  131.6798  154.5420 C   0  0  0  0  0  0  0  0  0  0  0  0
  130.7500  130.9165  153.4603 C   0  0  0  0  0  0  0  0  0  0  0  0
  131.5145  129.7846  153.6784 C   0  0  0  0  0  0  0  0  0  0  0  0
  131.8679  129.4274  154.8977 N   0  0  0  0  0  0  0  0  0  0  0  0
  131.5125  130.1250  155.9573 C   0  0  0  0  0  0  0  0  0  0  0  0
  130.6573  133.3599  157.2595 N   0  0  0  0  0  0  0  0  0  0  0  0
  131.1841  133.9303  156.6781 H   0  0  0  0  0  0  0  0  0  0  0  0
  129.5221  136.8781  160.3414 C   0  0  0  0  0  0  0  0  0  0  0  0
  130.8235  136.8098  161.1430 C   0  0  0  0  0  0  0  0  0  0  0  0
  131.1861  138.2083  161.6468 C   0  0  0  0  0  0  0  0  0  0  0  0
  130.0627  138.7349  162.5421 C   0  0  0  0  0  0  0  0  0  0  0  0
  128.7612  138.8031  161.7404 C   0  0  0  0  0  0  0  0  0  0  0  0
  128.3987  137.4047  161.2365 C   0  0  0  0  0  0  0  0  0  0  0  0
  127.9164  135.7758  157.6853 C   0  0  0  0  0  0  0  0  0  0  0  0
  126.7408  135.8331  156.9603 C   0  0  0  0  0  0  0  0  0  0  0  0
  124.6073  135.7181  157.0337 H   0  0  0  0  0  0  0  0  0  0  0  0
  124.5378  135.3200  159.4628 H   0  0  0  0  0  0  0  0  0  0  0  0
  126.6323  135.2106  160.7528 H   0  0  0  0  0  0  0  0  0  0  0  0
  131.0205  135.5204  158.8160 H   0  0  0  0  0  0  0  0  0  0  0  0
  129.1938  130.6170  158.1721 H   0  0  0  0  0  0  0  0  0  0  0  0
  129.7454  132.5660  154.4010 H   0  0  0  0  0  0  0  0  0  0  0  0
  130.4671  131.1991  152.4570 H   0  0  0  0  0  0  0  0  0  0  0  0
  131.8273  129.1843  152.8369 H   0  0  0  0  0  0  0  0  0  0  0  0
  131.8213  129.8006  156.9400 H   0  0  0  0  0  0  0  0  0  0  0  0
  129.6537  137.5477  159.4913 H   0  0  0  0  0  0  0  0  0  0  0  0
  130.6921  136.1401  161.9929 H   0  0  0  0  0  0  0  0  0  0  0  0
  131.6240  136.4346  160.5052 H   0  0  0  0  0  0  0  0  0  0  0  0
  131.3176  138.8778  160.7969 H   0  0  0  0  0  0  0  0  0  0  0  0
  132.1133  138.1597  162.2179 H   0  0  0  0  0  0  0  0  0  0  0  0
  130.3209  139.7313  162.9010 H   0  0  0  0  0  0  0  0  0  0  0  0
  129.9312  138.0654  163.3919 H   0  0  0  0  0  0  0  0  0  0  0  0
  128.8928  139.4728  160.8904 H   0  0  0  0  0  0  0  0  0  0  0  0
  127.9609  139.1784  162.3782 H   0  0  0  0  0  0  0  0  0  0  0  0
  127.4716  137.4534  160.6654 H   0  0  0  0  0  0  0  0  0  0  0  0
  128.2672  136.7351  162.0864 H   0  0  0  0  0  0  0  0  0  0  0  0
  128.8653  135.9065  157.1864 H   0  0  0  0  0  0  0  0  0  0  0  0
  126.7712  136.0076  155.8950 H   0  0  0  0  0  0  0  0  0  0  0  0
  1 28  2  0
  1  2  1  0
  1 29  1  0
  2  3  2  0
  2 30  1  0
  3  4  1  0
  3 31  1  0
  4  5  1  0
  4 27  2  0
  5  6  1  1
  5  7  1  0
  5 21  1  0
  7 32  1  0
  8  7  1  0
  8 19  2  0
  8  9  1  0
  9 10  1  0
  9 11  1  0
 11 12  2  0
 11 33  1  0
 12 13  1  0
 12 19  1  0
 13 18  1  0
 13 14  2  0
 14 15  1  0
 14 34  1  0
 15 16  2  0
 15 35  1  0
 16 17  1  0
 16 36  1  0
 17 18  2  0
 18 37  1  0
 19 20  1  0
 21 26  1  0
 21 22  1  0
 21 38  1  0
 22 23  1  0
 22 39  1  0
 22 40  1  0
 23 24  1  0
 23 41  1  0
 23 42  1  0
 24 25  1  0
 24 43  1  0
 24 44  1  0
 25 26  1  0
 25 45  1  0
 25 46  1  0
 26 47  1  0
 26 48  1  0
 27 28  1  0
 27 49  1  0
 28 50  1  0
M  CHG  1  19   1
M  END
>  <DOCK_score>  (1) 
-56.00045

>  <SMILES>  (1) 
c1ccc([C@@H](Nc2[nH]cc(-c3cccnc3)[nH+]2)C2CCCCC2)cc1

$$$$
