OC[C@H]1C[C@@H](Nc2ccc(-c3n[nH]cc3C[NH2+]C[C@H]3C[C@H]4CC[C@H]4C3)o2)C1
     RDKit          3D

 58 62  0  0  1  0  0  0  0  0999 V2000
  127.5295  134.8067  166.9333 O   0  0  0  0  0  0  0  0  0  0  0  0
  126.5308  135.6362  166.3363 C   0  0  0  0  0  0  0  0  0  0  0  0
  127.1353  136.3877  165.1485 C   0  0  1  0  0  0  0  0  0  0  0  0
  127.9714  137.0265  165.4331 H   0  0  0  0  0  0  0  0  0  0  0  0
  127.4312  135.4887  163.9343 C   0  0  0  0  0  0  0  0  0  0  0  0
  126.9165  136.6418  163.0566 C   0  0  1  0  0  0  0  0  0  0  0  0
  127.6926  137.3502  162.7670 H   0  0  0  0  0  0  0  0  0  0  0  0
  126.1002  136.1977  161.9239 N   0  0  0  0  0  0  0  0  0  0  0  0
  126.6427  135.3475  160.9673 C   0  0  0  0  0  0  0  0  0  0  0  0
  125.9557  134.4304  160.2415 C   0  0  0  0  0  0  0  0  0  0  0  0
  126.8863  133.7942  159.3964 C   0  0  0  0  0  0  0  0  0  0  0  0
  128.0986  134.3512  159.6557 C   0  0  0  0  0  0  0  0  0  0  0  0
  129.3745  133.9892  159.0045 C   0  0  0  0  0  0  0  0  0  0  0  0
  129.5382  133.0674  158.0760 N   0  0  0  0  0  0  0  0  0  0  0  0
  130.8938  133.0406  157.7245 N   0  0  0  0  0  0  0  0  0  0  0  0
  131.2983  132.4581  157.0627 H   0  0  0  0  0  0  0  0  0  0  0  0
  131.5413  133.9615  158.4707 C   0  0  0  0  0  0  0  0  0  0  0  0
  130.6352  134.5642  159.2701 C   0  0  0  0  0  0  0  0  0  0  0  0
  130.9200  135.6563  160.2689 C   0  0  0  0  0  0  0  0  0  0  0  0
  132.3531  135.9780  160.2470 N   0  0  0  0  0  0  0  0  0  0  0  0
  132.8862  135.1555  160.4867 H   0  0  0  0  0  0  0  0  0  0  0  0
  132.6137  136.2903  159.3236 H   0  0  0  0  0  0  0  0  0  0  0  0
  132.6309  137.0425  161.2204 C   0  0  0  0  0  0  0  0  0  0  0  0
  134.1236  137.3777  161.1976 C   0  0  1  0  0  0  0  0  0  0  0  0
  134.7076  136.4626  161.1012 H   0  0  0  0  0  0  0  0  0  0  0  0
  134.4299  138.3194  160.0237 C   0  0  0  0  0  0  0  0  0  0  0  0
  135.3955  139.3870  160.5722 C   0  0  1  0  0  0  0  0  0  0  0  0
  136.4433  139.2411  160.3098 H   0  0  0  0  0  0  0  0  0  0  0  0
  134.8509  140.8181  160.4156 C   0  0  0  0  0  0  0  0  0  0  0  0
  133.9896  140.5133  161.6924 C   0  0  0  0  0  0  0  0  0  0  0  0
  135.0652  139.4885  162.0788 C   0  0  1  0  0  0  0  0  0  0  0  0
  135.8644  139.8679  162.7154 H   0  0  0  0  0  0  0  0  0  0  0  0
  134.5127  138.1168  162.4856 C   0  0  0  0  0  0  0  0  0  0  0  0
  127.9370  135.2917  160.6102 O   0  0  0  0  0  0  0  0  0  0  0  0
  126.0897  137.0959  164.2710 C   0  0  0  0  0  0  0  0  0  0  0  0
  128.2978  135.2920  167.2639 H   0  0  0  0  0  0  0  0  0  0  0  0
  126.1664  136.3528  167.0723 H   0  0  0  0  0  0  0  0  0  0  0  0
  125.7029  135.0170  165.9913 H   0  0  0  0  0  0  0  0  0  0  0  0
  126.8088  134.5951  163.8906 H   0  0  0  0  0  0  0  0  0  0  0  0
  128.4911  135.2746  163.7965 H   0  0  0  0  0  0  0  0  0  0  0  0
  125.1800  136.4938  161.8437 H   0  0  0  0  0  0  0  0  0  0  0  0
  124.8964  134.2281  160.2989 H   0  0  0  0  0  0  0  0  0  0  0  0
  126.6772  133.0111  158.6826 H   0  0  0  0  0  0  0  0  0  0  0  0
  132.5987  134.1781  158.4344 H   0  0  0  0  0  0  0  0  0  0  0  0
  130.3442  136.5448  160.0100 H   0  0  0  0  0  0  0  0  0  0  0  0
  130.6386  135.3188  161.2664 H   0  0  0  0  0  0  0  0  0  0  0  0
  132.0550  137.9311  160.9614 H   0  0  0  0  0  0  0  0  0  0  0  0
  132.3495  136.7052  162.2180 H   0  0  0  0  0  0  0  0  0  0  0  0
  134.9041  137.7661  159.2129 H   0  0  0  0  0  0  0  0  0  0  0  0
  133.5119  138.7888  159.6700 H   0  0  0  0  0  0  0  0  0  0  0  0
  135.6028  141.5911  160.5748 H   0  0  0  0  0  0  0  0  0  0  0  0
  134.2749  140.9685  159.5024 H   0  0  0  0  0  0  0  0  0  0  0  0
  133.0220  140.0660  161.4650 H   0  0  0  0  0  0  0  0  0  0  0  0
  133.9161  141.3513  162.3855 H   0  0  0  0  0  0  0  0  0  0  0  0
  133.6349  138.2441  163.1191 H   0  0  0  0  0  0  0  0  0  0  0  0
  135.2778  137.5529  163.0193 H   0  0  0  0  0  0  0  0  0  0  0  0
  126.0680  138.1775  164.4046 H   0  0  0  0  0  0  0  0  0  0  0  0
  125.0992  136.6436  164.3189 H   0  0  0  0  0  0  0  0  0  0  0  0
  1  2  1  0
  1 36  1  0
  2  3  1  0
  2 37  1  0
  2 38  1  0
  3  4  1  1
  3 35  1  0
  3  5  1  0
  5  6  1  0
  5 39  1  0
  5 40  1  0
  6  7  1  6
  6  8  1  0
  6 35  1  0
  8  9  1  0
  8 41  1  0
  9 34  1  0
  9 10  2  0
 10 11  1  0
 10 42  1  0
 11 12  2  0
 11 43  1  0
 12 13  1  0
 12 34  1  0
 13 18  1  0
 13 14  2  0
 14 15  1  0
 15 16  1  0
 15 17  1  0
 17 18  2  0
 17 44  1  0
 18 19  1  0
 19 20  1  0
 19 45  1  0
 19 46  1  0
 20 21  1  0
 20 22  1  0
 20 23  1  0
 23 24  1  0
 23 47  1  0
 23 48  1  0
 24 25  1  6
 24 33  1  0
 24 26  1  0
 26 27  1  0
 26 49  1  0
 26 50  1  0
 27 28  1  1
 27 31  1  0
 27 29  1  0
 29 30  1  0
 29 51  1  0
 29 52  1  0
 30 31  1  0
 30 53  1  0
 30 54  1  0
 31 32  1  1
 31 33  1  0
 33 55  1  0
 33 56  1  0
 35 57  1  0
 35 58  1  0
M  CHG  1  20   1
M  END
>  <DOCK_score>  (1) 
-46.05806

>  <SMILES>  (1) 
OC[C@H]1C[C@@H](Nc2ccc(-c3n[nH]cc3C[NH2+]C[C@H]3C[C@H]4CC[C@H]4C3)o2)C1

$$$$
