CCc1ccc(-c2c[nH]c(N[C@@H](CCc3ccc(C)cc3)CC3=CCCC3)[nH+]2)cc1
     RDKit          3D

 64 67  0  0  1  0  0  0  0  0999 V2000
  129.8004  128.8945  151.1914 C   0  0  0  0  0  0  0  0  0  0  0  0
  131.0495  129.6877  151.5803 C   0  0  0  0  0  0  0  0  0  0  0  0
  130.8023  130.4082  152.8806 C   0  0  0  0  0  0  0  0  0  0  0  0
  131.1059  129.7872  154.0795 C   0  0  0  0  0  0  0  0  0  0  0  0
  130.8877  130.4434  155.2738 C   0  0  0  0  0  0  0  0  0  0  0  0
  130.3502  131.7294  155.2711 C   0  0  0  0  0  0  0  0  0  0  0  0
  130.1081  132.4377  156.5517 C   0  0  0  0  0  0  0  0  0  0  0  0
  129.2993  132.0172  157.5557 C   0  0  0  0  0  0  0  0  0  0  0  0
  129.3667  132.9667  158.5462 N   0  0  0  0  0  0  0  0  0  0  0  0
  128.8960  132.9469  159.3940 H   0  0  0  0  0  0  0  0  0  0  0  0
  130.2156  133.9406  158.1180 C   0  0  0  0  0  0  0  0  0  0  0  0
  130.5570  135.0807  158.8251 N   0  0  0  0  0  0  0  0  0  0  0  0
  129.9884  135.3159  160.1545 C   0  0  1  0  0  0  0  0  0  0  0  0
  129.9542  134.3766  160.7065 H   0  0  0  0  0  0  0  0  0  0  0  0
  130.8592  136.3208  160.9112 C   0  0  0  0  0  0  0  0  0  0  0  0
  132.0815  135.6039  161.4881 C   0  0  0  0  0  0  0  0  0  0  0  0
  132.9393  136.5936  162.2334 C   0  0  0  0  0  0  0  0  0  0  0  0
  132.7239  136.8183  163.5802 C   0  0  0  0  0  0  0  0  0  0  0  0
  133.5135  137.7231  164.2649 C   0  0  0  0  0  0  0  0  0  0  0  0
  134.5121  138.4103  163.6006 C   0  0  0  0  0  0  0  0  0  0  0  0
  135.3699  139.4001  164.3460 C   0  0  0  0  0  0  0  0  0  0  0  0
  134.7245  138.1891  162.2526 C   0  0  0  0  0  0  0  0  0  0  0  0
  133.9377  137.2811  161.5690 C   0  0  0  0  0  0  0  0  0  0  0  0
  128.5714  135.8750  160.0115 C   0  0  0  0  0  0  0  0  0  0  0  0
  127.8149  135.6615  161.2973 C   0  0  0  0  0  0  0  0  0  0  0  0
  127.1034  134.6012  161.5681 C   0  0  0  0  0  0  0  0  0  0  0  0
  126.4763  134.7025  162.9392 C   0  0  0  0  0  0  0  0  0  0  0  0
  126.5808  136.2001  163.3096 C   0  0  0  0  0  0  0  0  0  0  0  0
  127.7855  136.6441  162.4449 C   0  0  0  0  0  0  0  0  0  0  0  0
  130.6611  133.6180  156.9283 N   0  0  0  0  0  0  0  0  0  0  0  0
  131.2846  134.1408  156.4004 H   0  0  0  0  0  0  0  0  0  0  0  0
  130.0415  132.3475  154.0606 C   0  0  0  0  0  0  0  0  0  0  0  0
  130.2694  131.6839  152.8723 C   0  0  0  0  0  0  0  0  0  0  0  0
  129.9787  128.3742  150.2504 H   0  0  0  0  0  0  0  0  0  0  0  0
  129.5747  128.1675  151.9716 H   0  0  0  0  0  0  0  0  0  0  0  0
  128.9580  129.5764  151.0756 H   0  0  0  0  0  0  0  0  0  0  0  0
  131.8918  129.0063  151.6956 H   0  0  0  0  0  0  0  0  0  0  0  0
  131.2751  130.4153  150.7998 H   0  0  0  0  0  0  0  0  0  0  0  0
  131.5179  128.7888  154.0805 H   0  0  0  0  0  0  0  0  0  0  0  0
  131.1290  129.9598  156.2088 H   0  0  0  0  0  0  0  0  0  0  0  0
  128.7139  131.1098  157.5732 H   0  0  0  0  0  0  0  0  0  0  0  0
  131.1727  135.7239  158.4403 H   0  0  0  0  0  0  0  0  0  0  0  0
  131.1865  137.1046  160.2282 H   0  0  0  0  0  0  0  0  0  0  0  0
  130.2814  136.7639  161.7225 H   0  0  0  0  0  0  0  0  0  0  0  0
  131.7541  134.8200  162.1711 H   0  0  0  0  0  0  0  0  0  0  0  0
  132.6592  135.1608  160.6768 H   0  0  0  0  0  0  0  0  0  0  0  0
  131.9408  136.2845  164.0984 H   0  0  0  0  0  0  0  0  0  0  0  0
  133.3479  137.8957  165.3181 H   0  0  0  0  0  0  0  0  0  0  0  0
  134.9106  140.3874  164.2980 H   0  0  0  0  0  0  0  0  0  0  0  0
  135.4596  139.0913  165.3875 H   0  0  0  0  0  0  0  0  0  0  0  0
  136.3600  139.4374  163.8916 H   0  0  0  0  0  0  0  0  0  0  0  0
  135.5047  138.7259  161.7337 H   0  0  0  0  0  0  0  0  0  0  0  0
  134.1032  137.1086  160.5158 H   0  0  0  0  0  0  0  0  0  0  0  0
  128.6220  136.9416  159.7927 H   0  0  0  0  0  0  0  0  0  0  0  0
  128.0583  135.3611  159.1986 H   0  0  0  0  0  0  0  0  0  0  0  0
  126.9791  133.7620  160.9000 H   0  0  0  0  0  0  0  0  0  0  0  0
  125.4320  134.3922  162.9028 H   0  0  0  0  0  0  0  0  0  0  0  0
  127.0293  134.0947  163.6554 H   0  0  0  0  0  0  0  0  0  0  0  0
  125.6743  136.7366  163.0292 H   0  0  0  0  0  0  0  0  0  0  0  0
  126.7954  136.3267  164.3707 H   0  0  0  0  0  0  0  0  0  0  0  0
  128.7103  136.5851  163.0190 H   0  0  0  0  0  0  0  0  0  0  0  0
  127.6321  137.6573  162.0735 H   0  0  0  0  0  0  0  0  0  0  0  0
  129.6245  133.3438  154.0527 H   0  0  0  0  0  0  0  0  0  0  0  0
  130.0302  132.1618  151.9337 H   0  0  0  0  0  0  0  0  0  0  0  0
  1  2  1  0
  1 34  1  0
  1 35  1  0
  1 36  1  0
  2  3  1  0
  2 37  1  0
  2 38  1  0
  3 33  2  0
  3  4  1  0
  4  5  2  0
  4 39  1  0
  5  6  1  0
  5 40  1  0
  6  7  1  0
  6 32  2  0
  7 30  1  0
  7  8  2  0
  8  9  1  0
  8 41  1  0
  9 10  1  0
  9 11  1  0
 11 12  1  0
 11 30  2  0
 12 13  1  0
 12 42  1  0
 13 14  1  1
 13 15  1  0
 13 24  1  0
 15 16  1  0
 15 43  1  0
 15 44  1  0
 16 17  1  0
 16 45  1  0
 16 46  1  0
 17 23  1  0
 17 18  2  0
 18 19  1  0
 18 47  1  0
 19 20  2  0
 19 48  1  0
 20 21  1  0
 20 22  1  0
 21 49  1  0
 21 50  1  0
 21 51  1  0
 22 23  2  0
 22 52  1  0
 23 53  1  0
 24 25  1  0
 24 54  1  0
 24 55  1  0
 25 29  1  0
 25 26  2  0
 26 27  1  0
 26 56  1  0
 27 28  1  0
 27 57  1  0
 27 58  1  0
 28 29  1  0
 28 59  1  0
 28 60  1  0
 29 61  1  0
 29 62  1  0
 30 31  1  0
 32 33  1  0
 32 63  1  0
 33 64  1  0
M  CHG  1  30   1
M  END
>  <DOCK_score>  (1) 
-57.851776

>  <SMILES>  (1) 
CCc1ccc(-c2c[nH]c(N[C@@H](CCc3ccc(C)cc3)CC3=CCCC3)[nH+]2)cc1

$$$$
