N#Cc1cccc([C@@H](CO)C[NH+]=C(NC2CC=CC2)N[C@H]2C[C@@H](O)C2)c1
     RDKit          3D

 53 55  0  0  1  0  0  0  0  0999 V2000
  136.2902  138.8142  163.6310 N   0  0  0  0  0  0  0  0  0  0  0  0
  135.5986  138.8647  162.7311 C   0  0  0  0  0  0  0  0  0  0  0  0
  134.7268  138.9282  161.5970 C   0  0  0  0  0  0  0  0  0  0  0  0
  135.2304  139.2850  160.3442 C   0  0  0  0  0  0  0  0  0  0  0  0
  134.3851  139.3439  159.2560 C   0  0  0  0  0  0  0  0  0  0  0  0
  133.0418  139.0452  159.4022 C   0  0  0  0  0  0  0  0  0  0  0  0
  132.5351  138.6963  160.6413 C   0  0  0  0  0  0  0  0  0  0  0  0
  131.0699  138.3779  160.7920 C   0  0  1  0  0  0  0  0  0  0  0  0
  130.8576  138.1270  161.8313 H   0  0  0  0  0  0  0  0  0  0  0  0
  130.2387  139.5949  160.3810 C   0  0  0  0  0  0  0  0  0  0  0  0
  128.9286  139.4882  160.9416 O   0  0  0  0  0  0  0  0  0  0  0  0
  130.7116  137.1897  159.8972 C   0  0  0  0  0  0  0  0  0  0  0  0
  129.4669  136.5794  160.3711 N   0  0  0  0  0  0  0  0  0  0  0  0
  129.0112  136.9456  161.1452 H   0  0  0  0  0  0  0  0  0  0  0  0
  128.9719  135.5444  159.7526 C   0  0  0  0  0  0  0  0  0  0  0  0
  129.6178  135.0254  158.6554 N   0  0  0  0  0  0  0  0  0  0  0  0
  129.0614  133.8620  157.9603 C   0  0  0  0  0  0  0  0  0  0  0  0
  129.1397  132.5965  158.8456 C   0  0  0  0  0  0  0  0  0  0  0  0
  129.4650  131.4758  157.8847 C   0  0  0  0  0  0  0  0  0  0  0  0
  129.9063  131.9435  156.7488 C   0  0  0  0  0  0  0  0  0  0  0  0
  129.9500  133.4538  156.7624 C   0  0  0  0  0  0  0  0  0  0  0  0
  127.8041  134.9714  160.1974 N   0  0  0  0  0  0  0  0  0  0  0  0
  127.4577  135.0239  161.6199 C   0  0  1  0  0  0  0  0  0  0  0  0
  128.3337  135.0418  162.2683 H   0  0  0  0  0  0  0  0  0  0  0  0
  126.4168  136.1033  161.9610 C   0  0  0  0  0  0  0  0  0  0  0  0
  125.3401  135.0370  161.6836 C   0  0  1  0  0  0  0  0  0  0  0  0
  124.5057  135.0663  162.3844 H   0  0  0  0  0  0  0  0  0  0  0  0
  124.9174  134.9892  160.3194 O   0  0  0  0  0  0  0  0  0  0  0  0
  126.4040  133.9842  162.0363 C   0  0  0  0  0  0  0  0  0  0  0  0
  133.3694  138.6334  161.7385 C   0  0  0  0  0  0  0  0  0  0  0  0
  136.2793  139.5140  160.2277 H   0  0  0  0  0  0  0  0  0  0  0  0
  134.7733  139.6194  158.2865 H   0  0  0  0  0  0  0  0  0  0  0  0
  132.3851  139.0886  158.5460 H   0  0  0  0  0  0  0  0  0  0  0  0
  130.1666  139.6353  159.2941 H   0  0  0  0  0  0  0  0  0  0  0  0
  130.7180  140.5028  160.7474 H   0  0  0  0  0  0  0  0  0  0  0  0
  128.9163  139.4473  161.9077 H   0  0  0  0  0  0  0  0  0  0  0  0
  130.5798  137.5342  158.8715 H   0  0  0  0  0  0  0  0  0  0  0  0
  131.5141  136.4530  159.9328 H   0  0  0  0  0  0  0  0  0  0  0  0
  130.4419  135.4295  158.3417 H   0  0  0  0  0  0  0  0  0  0  0  0
  128.0371  134.0530  157.6405 H   0  0  0  0  0  0  0  0  0  0  0  0
  129.9306  132.7011  159.5884 H   0  0  0  0  0  0  0  0  0  0  0  0
  128.1819  132.4140  159.3327 H   0  0  0  0  0  0  0  0  0  0  0  0
  129.3472  130.4259  158.1087 H   0  0  0  0  0  0  0  0  0  0  0  0
  130.2012  131.3313  155.9093 H   0  0  0  0  0  0  0  0  0  0  0  0
  129.5427  133.8539  155.8338 H   0  0  0  0  0  0  0  0  0  0  0  0
  130.9718  133.8029  156.9113 H   0  0  0  0  0  0  0  0  0  0  0  0
  127.2092  134.5323  159.5694 H   0  0  0  0  0  0  0  0  0  0  0  0
  126.4507  136.4295  163.0005 H   0  0  0  0  0  0  0  0  0  0  0  0
  126.4023  136.9343  161.2558 H   0  0  0  0  0  0  0  0  0  0  0  0
  124.2483  135.6491  160.0916 H   0  0  0  0  0  0  0  0  0  0  0  0
  126.3792  133.1056  161.3917 H   0  0  0  0  0  0  0  0  0  0  0  0
  126.4344  133.7322  163.0963 H   0  0  0  0  0  0  0  0  0  0  0  0
  132.9735  138.3566  162.7042 H   0  0  0  0  0  0  0  0  0  0  0  0
  1  2  3  0
  2  3  1  0
  3 30  2  0
  3  4  1  0
  4  5  2  0
  4 31  1  0
  5  6  1  0
  5 32  1  0
  6  7  2  0
  6 33  1  0
  7  8  1  0
  7 30  1  0
  8  9  1  1
  8 10  1  0
  8 12  1  0
 10 11  1  0
 10 34  1  0
 10 35  1  0
 11 36  1  0
 12 13  1  0
 12 37  1  0
 12 38  1  0
 13 14  1  0
 15 13  2  0
 15 16  1  0
 15 22  1  0
 16 17  1  0
 16 39  1  0
 17 21  1  0
 17 18  1  0
 17 40  1  0
 18 19  1  0
 18 41  1  0
 18 42  1  0
 19 20  2  0
 19 43  1  0
 20 21  1  0
 20 44  1  0
 21 45  1  0
 21 46  1  0
 22 23  1  0
 22 47  1  0
 23 24  1  1
 23 29  1  0
 23 25  1  0
 25 26  1  0
 25 48  1  0
 25 49  1  0
 26 27  1  1
 26 28  1  0
 26 29  1  0
 28 50  1  0
 29 51  1  0
 29 52  1  0
 30 53  1  0
M  CHG  1  13   1
M  END
>  <DOCK_score>  (1) 
-44.394436

>  <SMILES>  (1) 
N#Cc1cccc([C@@H](CO)C[NH+]=C(NC2CC=CC2)N[C@H]2C[C@@H](O)C2)c1

$$$$
