O[C@@H]1C=C[C@@H]([NH+]=C(NC2CC=CC2)NC2CC=CC2)[C@@H]1Br
     RDKit          3D

 44 46  0  0  1  0  0  0  0  0999 V2000
  125.0982  135.1891  161.7784 O   0  0  0  0  0  0  0  0  0  0  0  0
  126.2653  135.2451  160.9558 C   0  0  2  0  0  0  0  0  0  0  0  0
  126.7883  136.1898  161.1040 H   0  0  0  0  0  0  0  0  0  0  0  0
  125.8936  135.0689  159.5019 C   0  0  0  0  0  0  0  0  0  0  0  0
  126.7064  134.2395  158.9061 C   0  0  0  0  0  0  0  0  0  0  0  0
  127.7559  133.7230  159.8638 C   0  0  1  0  0  0  0  0  0  0  0  0
  127.8786  132.6460  159.7490 H   0  0  0  0  0  0  0  0  0  0  0  0
  129.0310  134.4095  159.6418 N   0  0  0  0  0  0  0  0  0  0  0  0
  129.2335  135.2251  160.1264 H   0  0  0  0  0  0  0  0  0  0  0  0
  129.8933  133.9243  158.7933 C   0  0  0  0  0  0  0  0  0  0  0  0
  129.4572  133.2095  157.7029 N   0  0  0  0  0  0  0  0  0  0  0  0
  130.4265  132.6641  156.7493 C   0  0  0  0  0  0  0  0  0  0  0  0
  129.7660  132.3997  155.3763 C   0  0  0  0  0  0  0  0  0  0  0  0
  130.4086  131.1243  154.8809 C   0  0  0  0  0  0  0  0  0  0  0  0
  131.0084  130.4918  155.8524 C   0  0  0  0  0  0  0  0  0  0  0  0
  130.8658  131.2390  157.1581 C   0  0  0  0  0  0  0  0  0  0  0  0
  131.2389  134.1271  158.9889 N   0  0  0  0  0  0  0  0  0  0  0  0
  131.7036  134.8887  160.1510 C   0  0  0  0  0  0  0  0  0  0  0  0
  133.2434  134.8236  160.2778 C   0  0  0  0  0  0  0  0  0  0  0  0
  133.5029  134.7475  161.7650 C   0  0  0  0  0  0  0  0  0  0  0  0
  132.4205  134.4162  162.4148 C   0  0  0  0  0  0  0  0  0  0  0  0
  131.2584  134.2153  161.4700 C   0  0  0  0  0  0  0  0  0  0  0  0
  127.2025  134.0556  161.2688 C   0  0  2  0  0  0  0  0  0  0  0  0
  128.0037  134.3559  161.9440 H   0  0  0  0  0  0  0  0  0  0  0  0
  126.1941  132.5381  162.0075 Br  0  0  0  0  0  0  0  0  0  0  0  0
  124.4738  135.9115  161.6250 H   0  0  0  0  0  0  0  0  0  0  0  0
  125.0644  135.5646  159.0189 H   0  0  0  0  0  0  0  0  0  0  0  0
  126.6378  133.9582  157.8656 H   0  0  0  0  0  0  0  0  0  0  0  0
  128.5079  133.0663  157.5649 H   0  0  0  0  0  0  0  0  0  0  0  0
  131.2874  133.3251  156.6485 H   0  0  0  0  0  0  0  0  0  0  0  0
  128.6909  132.2630  155.4922 H   0  0  0  0  0  0  0  0  0  0  0  0
  129.9733  133.2213  154.6907 H   0  0  0  0  0  0  0  0  0  0  0  0
  130.3758  130.7816  153.8573 H   0  0  0  0  0  0  0  0  0  0  0  0
  131.5371  129.5569  155.7381 H   0  0  0  0  0  0  0  0  0  0  0  0
  131.8204  131.2717  157.6831 H   0  0  0  0  0  0  0  0  0  0  0  0
  130.1050  130.7719  157.7835 H   0  0  0  0  0  0  0  0  0  0  0  0
  131.8807  133.7660  158.3575 H   0  0  0  0  0  0  0  0  0  0  0  0
  131.3582  135.9214  160.1029 H   0  0  0  0  0  0  0  0  0  0  0  0
  133.6281  133.9340  159.7792 H   0  0  0  0  0  0  0  0  0  0  0  0
  133.6972  135.7214  159.8579 H   0  0  0  0  0  0  0  0  0  0  0  0
  134.4586  134.9419  162.2289 H   0  0  0  0  0  0  0  0  0  0  0  0
  132.3629  134.3004  163.4870 H   0  0  0  0  0  0  0  0  0  0  0  0
  130.3635  134.6998  161.8603 H   0  0  0  0  0  0  0  0  0  0  0  0
  131.0755  133.1527  161.3109 H   0  0  0  0  0  0  0  0  0  0  0  0
  1  2  1  0
  1 26  1  0
  2  3  1  6
  2 23  1  0
  2  4  1  0
  4  5  2  0
  4 27  1  0
  5  6  1  0
  5 28  1  0
  6  7  1  1
  6  8  1  0
  6 23  1  0
  8  9  1  0
 10  8  2  0
 10 11  1  0
 10 17  1  1
 11 12  1  0
 11 29  1  0
 12 16  1  0
 12 13  1  0
 12 30  1  0
 13 14  1  0
 13 31  1  0
 13 32  1  0
 14 15  2  0
 14 33  1  0
 15 16  1  0
 15 34  1  0
 16 35  1  0
 16 36  1  0
 17 18  1  0
 17 37  1  0
 18 22  1  0
 18 19  1  0
 18 38  1  0
 19 20  1  0
 19 39  1  0
 19 40  1  0
 20 21  2  0
 20 41  1  0
 21 22  1  0
 21 42  1  0
 22 43  1  0
 22 44  1  0
 23 24  1  1
 23 25  1  0
M  CHG  1   8   1
M  END
>  <DOCK_score>  (1) 
-44.56728

>  <SMILES>  (1) 
O[C@@H]1C=C[C@@H]([NH+]=C(NC2CC=CC2)NC2CC=CC2)[C@@H]1Br

$$$$
