Cc1c(CNc2[nH]cc(-c3ccc(-c4ccccc4)cc3)[nH+]2)ccc2c1CCC2
     RDKit          3D

 55 59  0  0  1  0  0  0  0  0999 V2000
  131.1766  138.4992  161.8631 C   0  0  0  0  0  0  0  0  0  0  0  0
  132.6348  138.1188  161.8575 C   0  0  0  0  0  0  0  0  0  0  0  0
  133.0038  136.8095  161.6169 C   0  0  0  0  0  0  0  0  0  0  0  0
  131.9494  135.7637  161.3606 C   0  0  0  0  0  0  0  0  0  0  0  0
  131.6722  135.6916  159.9238 N   0  0  0  0  0  0  0  0  0  0  0  0
  131.2677  134.4957  159.3560 C   0  0  0  0  0  0  0  0  0  0  0  0
  130.7254  133.4430  160.0271 N   0  0  0  0  0  0  0  0  0  0  0  0
  130.5555  133.3959  160.9810 H   0  0  0  0  0  0  0  0  0  0  0  0
  130.4595  132.4614  159.1041 C   0  0  0  0  0  0  0  0  0  0  0  0
  130.8539  132.9389  157.8970 C   0  0  0  0  0  0  0  0  0  0  0  0
  130.7612  132.2223  156.6026 C   0  0  0  0  0  0  0  0  0  0  0  0
  130.0085  132.7613  155.5591 C   0  0  0  0  0  0  0  0  0  0  0  0
  129.9226  132.0954  154.3565 C   0  0  0  0  0  0  0  0  0  0  0  0
  130.5885  130.8823  154.1820 C   0  0  0  0  0  0  0  0  0  0  0  0
  130.4964  130.1655  152.8870 C   0  0  0  0  0  0  0  0  0  0  0  0
  130.5852  128.7754  152.8487 C   0  0  0  0  0  0  0  0  0  0  0  0
  130.4934  128.1136  151.6411 C   0  0  0  0  0  0  0  0  0  0  0  0
  130.3241  128.8282  150.4689 C   0  0  0  0  0  0  0  0  0  0  0  0
  130.2411  130.2086  150.5000 C   0  0  0  0  0  0  0  0  0  0  0  0
  130.3262  130.8807  151.7022 C   0  0  0  0  0  0  0  0  0  0  0  0
  131.3415  130.3437  155.2247 C   0  0  0  0  0  0  0  0  0  0  0  0
  131.4272  131.0092  156.4276 C   0  0  0  0  0  0  0  0  0  0  0  0
  131.3428  134.1909  158.0836 N   0  0  0  0  0  0  0  0  0  0  0  0
  131.6921  134.7680  157.3866 H   0  0  0  0  0  0  0  0  0  0  0  0
  134.3406  136.4584  161.6172 C   0  0  0  0  0  0  0  0  0  0  0  0
  135.3058  137.4198  161.8472 C   0  0  0  0  0  0  0  0  0  0  0  0
  134.9379  138.7325  162.0884 C   0  0  0  0  0  0  0  0  0  0  0  0
  133.6003  139.0825  162.0937 C   0  0  0  0  0  0  0  0  0  0  0  0
  133.4600  140.5625  162.3795 C   0  0  0  0  0  0  0  0  0  0  0  0
  134.8174  140.9890  162.9776 C   0  0  0  0  0  0  0  0  0  0  0  0
  135.7873  139.9534  162.3699 C   0  0  0  0  0  0  0  0  0  0  0  0
  130.7771  138.3925  162.8716 H   0  0  0  0  0  0  0  0  0  0  0  0
  131.0698  139.5341  161.5377 H   0  0  0  0  0  0  0  0  0  0  0  0
  130.6281  137.8464  161.1840 H   0  0  0  0  0  0  0  0  0  0  0  0
  131.0368  136.0295  161.8938 H   0  0  0  0  0  0  0  0  0  0  0  0
  132.3059  134.7949  161.7108 H   0  0  0  0  0  0  0  0  0  0  0  0
  131.7721  136.4819  159.3704 H   0  0  0  0  0  0  0  0  0  0  0  0
  130.0219  131.4940  159.3016 H   0  0  0  0  0  0  0  0  0  0  0  0
  129.4968  133.7030  155.6928 H   0  0  0  0  0  0  0  0  0  0  0  0
  129.3398  132.5127  153.5486 H   0  0  0  0  0  0  0  0  0  0  0  0
  130.7213  128.2168  153.7629 H   0  0  0  0  0  0  0  0  0  0  0  0
  130.5580  127.0359  151.6109 H   0  0  0  0  0  0  0  0  0  0  0  0
  130.2571  128.3063  149.5257 H   0  0  0  0  0  0  0  0  0  0  0  0
  130.1096  130.7615  149.5815 H   0  0  0  0  0  0  0  0  0  0  0  0
  130.2615  131.9586  151.7253 H   0  0  0  0  0  0  0  0  0  0  0  0
  131.8571  129.4046  155.0893 H   0  0  0  0  0  0  0  0  0  0  0  0
  132.0101  130.5918  157.2354 H   0  0  0  0  0  0  0  0  0  0  0  0
  134.6306  135.4343  161.4339 H   0  0  0  0  0  0  0  0  0  0  0  0
  136.3503  137.1457  161.8428 H   0  0  0  0  0  0  0  0  0  0  0  0
  133.2648  141.1089  161.4568 H   0  0  0  0  0  0  0  0  0  0  0  0
  132.6591  140.7345  163.0984 H   0  0  0  0  0  0  0  0  0  0  0  0
  134.8023  140.9142  164.0649 H   0  0  0  0  0  0  0  0  0  0  0  0
  135.0823  141.9987  162.6638 H   0  0  0  0  0  0  0  0  0  0  0  0
  136.5753  139.7097  163.0824 H   0  0  0  0  0  0  0  0  0  0  0  0
  136.2179  140.3360  161.4445 H   0  0  0  0  0  0  0  0  0  0  0  0
  1  2  1  0
  1 32  1  0
  1 33  1  0
  1 34  1  0
  2 28  2  0
  2  3  1  0
  3  4  1  0
  3 25  2  0
  4  5  1  0
  4 35  1  0
  4 36  1  0
  5 37  1  0
  6  5  1  0
  6 23  2  0
  6  7  1  0
  7  8  1  0
  7  9  1  0
  9 10  2  0
  9 38  1  0
 10 11  1  0
 10 23  1  0
 11 22  1  0
 11 12  2  0
 12 13  1  0
 12 39  1  0
 13 14  2  0
 13 40  1  0
 14 15  1  0
 14 21  1  0
 15 20  1  0
 15 16  2  0
 16 17  1  0
 16 41  1  0
 17 18  2  0
 17 42  1  0
 18 19  1  0
 18 43  1  0
 19 20  2  0
 19 44  1  0
 20 45  1  0
 21 22  2  0
 21 46  1  0
 22 47  1  0
 23 24  1  0
 25 26  1  0
 25 48  1  0
 26 27  2  0
 26 49  1  0
 27 31  1  0
 27 28  1  0
 28 29  1  0
 29 30  1  0
 29 50  1  0
 29 51  1  0
 30 31  1  0
 30 52  1  0
 30 53  1  0
 31 54  1  0
 31 55  1  0
M  CHG  1  23   1
M  END
>  <DOCK_score>  (1) 
-59.916725

>  <SMILES>  (1) 
Cc1c(CNc2[nH]cc(-c3ccc(-c4ccccc4)cc3)[nH+]2)ccc2c1CCC2

$$$$
