Oc1ccc(-c2ccccc2)cc1CNC(N[C@@H]1C[C@H](O)C[C@H](O)C1)=[NH+]Cc1cccs1
     RDKit          3D

 62 65  0  0  1  0  0  0  0  0999 V2000
  133.7176  133.9622  162.3250 O   0  0  0  0  0  0  0  0  0  0  0  0
  134.0260  135.2343  161.9608 C   0  0  0  0  0  0  0  0  0  0  0  0
  134.8218  136.0177  162.7862 C   0  0  0  0  0  0  0  0  0  0  0  0
  135.1369  137.3089  162.4191 C   0  0  0  0  0  0  0  0  0  0  0  0
  134.6553  137.8279  161.2182 C   0  0  0  0  0  0  0  0  0  0  0  0
  134.9930  139.2166  160.8202 C   0  0  0  0  0  0  0  0  0  0  0  0
  135.0956  139.5521  159.4715 C   0  0  0  0  0  0  0  0  0  0  0  0
  135.4051  140.8468  159.1069 C   0  0  0  0  0  0  0  0  0  0  0  0
  135.6234  141.8080  160.0773 C   0  0  0  0  0  0  0  0  0  0  0  0
  135.5285  141.4790  161.4175 C   0  0  0  0  0  0  0  0  0  0  0  0
  135.2143  140.1888  161.7935 C   0  0  0  0  0  0  0  0  0  0  0  0
  133.8604  137.0378  160.3899 C   0  0  0  0  0  0  0  0  0  0  0  0
  133.5446  135.7485  160.7647 C   0  0  0  0  0  0  0  0  0  0  0  0
  132.6812  134.8952  159.8718 C   0  0  0  0  0  0  0  0  0  0  0  0
  131.2733  135.0782  160.2338 N   0  0  0  0  0  0  0  0  0  0  0  0
  130.2939  134.3965  159.5515 C   0  0  0  0  0  0  0  0  0  0  0  0
  128.9729  134.5682  159.8913 N   0  0  0  0  0  0  0  0  0  0  0  0
  128.6078  134.8899  161.2732 C   0  0  2  0  0  0  0  0  0  0  0  0
  129.0788  135.8287  161.5642 H   0  0  0  0  0  0  0  0  0  0  0  0
  129.0857  133.7706  162.2006 C   0  0  0  0  0  0  0  0  0  0  0  0
  128.7045  134.1066  163.6437 C   0  0  2  0  0  0  0  0  0  0  0  0
  129.1754  135.0456  163.9348 H   0  0  0  0  0  0  0  0  0  0  0  0
  129.1507  133.0613  164.5099 O   0  0  0  0  0  0  0  0  0  0  0  0
  127.1844  134.2437  163.7509 C   0  0  0  0  0  0  0  0  0  0  0  0
  126.7066  135.3628  162.8236 C   0  0  2  0  0  0  0  0  0  0  0  0
  127.1775  136.3018  163.1146 H   0  0  0  0  0  0  0  0  0  0  0  0
  125.2868  135.4909  162.9238 O   0  0  0  0  0  0  0  0  0  0  0  0
  127.0878  135.0271  161.3804 C   0  0  0  0  0  0  0  0  0  0  0  0
  130.6176  133.5873  158.5822 N   0  0  0  0  0  0  0  0  0  0  0  0
  131.5497  133.4661  158.3425 H   0  0  0  0  0  0  0  0  0  0  0  0
  129.5737  132.8607  157.8552 C   0  0  0  0  0  0  0  0  0  0  0  0
  130.2076  131.9999  156.7931 C   0  0  0  0  0  0  0  0  0  0  0  0
  130.6024  130.7368  156.9613 C   0  0  0  0  0  0  0  0  0  0  0  0
  131.1588  130.1455  155.8402 C   0  0  0  0  0  0  0  0  0  0  0  0
  131.2160  130.9282  154.7616 C   0  0  0  0  0  0  0  0  0  0  0  0
  130.5335  132.5044  155.1400 S   0  0  0  0  0  0  0  0  0  0  0  0
  134.0972  133.6926  163.1725 H   0  0  0  0  0  0  0  0  0  0  0  0
  135.1947  135.6151  163.7164 H   0  0  0  0  0  0  0  0  0  0  0  0
  135.7567  137.9174  163.0610 H   0  0  0  0  0  0  0  0  0  0  0  0
  134.9292  138.8015  158.7130 H   0  0  0  0  0  0  0  0  0  0  0  0
  135.4808  141.1090  158.0619 H   0  0  0  0  0  0  0  0  0  0  0  0
  135.8692  142.8190  159.7875 H   0  0  0  0  0  0  0  0  0  0  0  0
  135.7004  142.2335  162.1710 H   0  0  0  0  0  0  0  0  0  0  0  0
  135.1406  139.9332  162.8402 H   0  0  0  0  0  0  0  0  0  0  0  0
  133.4890  137.4359  159.4572 H   0  0  0  0  0  0  0  0  0  0  0  0
  132.9549  133.8474  159.9953 H   0  0  0  0  0  0  0  0  0  0  0  0
  132.8303  135.1897  158.8330 H   0  0  0  0  0  0  0  0  0  0  0  0
  131.0326  135.6805  160.9551 H   0  0  0  0  0  0  0  0  0  0  0  0
  128.2825  134.4765  159.2161 H   0  0  0  0  0  0  0  0  0  0  0  0
  128.6147  132.8317  161.9095 H   0  0  0  0  0  0  0  0  0  0  0  0
  130.1685  133.6730  162.1241 H   0  0  0  0  0  0  0  0  0  0  0  0
  128.9425  133.2077  165.4428 H   0  0  0  0  0  0  0  0  0  0  0  0
  126.9127  134.4831  164.7791 H   0  0  0  0  0  0  0  0  0  0  0  0
  126.7135  133.3048  163.4599 H   0  0  0  0  0  0  0  0  0  0  0  0
  124.9137  136.1836  162.3616 H   0  0  0  0  0  0  0  0  0  0  0  0
  126.7474  135.8244  160.7197 H   0  0  0  0  0  0  0  0  0  0  0  0
  126.6168  134.0880  161.0894 H   0  0  0  0  0  0  0  0  0  0  0  0
  128.8937  133.5728  157.3878 H   0  0  0  0  0  0  0  0  0  0  0  0
  129.0185  132.2306  158.5500 H   0  0  0  0  0  0  0  0  0  0  0  0
  130.4962  130.2153  157.9010 H   0  0  0  0  0  0  0  0  0  0  0  0
  131.5190  129.1273  155.8388 H   0  0  0  0  0  0  0  0  0  0  0  0
  131.6156  130.6371  153.8015 H   0  0  0  0  0  0  0  0  0  0  0  0
  1  2  1  0
  1 37  1  0
  2 13  2  0
  2  3  1  0
  3  4  2  0
  3 38  1  0
  4  5  1  0
  4 39  1  0
  5  6  1  0
  5 12  2  0
  6 11  1  0
  6  7  2  0
  7  8  1  0
  7 40  1  0
  8  9  2  0
  8 41  1  0
  9 10  1  0
  9 42  1  0
 10 11  2  0
 10 43  1  0
 11 44  1  0
 12 13  1  0
 12 45  1  0
 13 14  1  0
 14 15  1  0
 14 46  1  0
 14 47  1  0
 15 48  1  0
 16 15  1  0
 16 17  1  0
 16 29  2  0
 17 18  1  0
 17 49  1  0
 18 19  1  1
 18 28  1  0
 18 20  1  0
 20 21  1  0
 20 50  1  0
 20 51  1  0
 21 22  1  1
 21 23  1  0
 21 24  1  0
 23 52  1  0
 24 25  1  0
 24 53  1  0
 24 54  1  0
 25 26  1  1
 25 27  1  0
 25 28  1  0
 27 55  1  0
 28 56  1  0
 28 57  1  0
 29 30  1  0
 29 31  1  0
 31 32  1  0
 31 58  1  0
 31 59  1  0
 32 36  1  0
 32 33  2  0
 33 34  1  0
 33 60  1  0
 34 35  2  0
 34 61  1  0
 35 36  1  0
 35 62  1  0
M  CHG  1  29   1
M  END
>  <DOCK_score>  (1) 
-47.879555

>  <SMILES>  (1) 
Oc1ccc(-c2ccccc2)cc1CNC(N[C@@H]1C[C@H](O)C[C@H](O)C1)=[NH+]Cc1cccs1

$$$$
