C1=C[C@@H](Nc2ccc(-c3n[nH]cc3C[NH2+]C3CCCCCCCCC3)o2)CC1
     RDKit          3D

 63 66  0  0  1  0  0  0  0  0999 V2000
  127.1345  137.2551  165.0796 C   0  0  0  0  0  0  0  0  0  0  0  0
  127.6574  136.7825  163.9810 C   0  0  0  0  0  0  0  0  0  0  0  0
  127.1557  137.5366  162.7714 C   0  0  1  0  0  0  0  0  0  0  0  0
  127.9802  137.7674  162.0969 H   0  0  0  0  0  0  0  0  0  0  0  0
  126.1297  136.7576  162.0737 N   0  0  0  0  0  0  0  0  0  0  0  0
  126.4948  135.8711  161.0672 C   0  0  0  0  0  0  0  0  0  0  0  0
  125.6456  135.0952  160.3483 C   0  0  0  0  0  0  0  0  0  0  0  0
  126.4315  134.3565  159.4418 C   0  0  0  0  0  0  0  0  0  0  0  0
  127.7238  134.7200  159.6539 C   0  0  0  0  0  0  0  0  0  0  0  0
  128.9005  134.1945  158.9312 C   0  0  0  0  0  0  0  0  0  0  0  0
  128.8825  133.2886  157.9734 N   0  0  0  0  0  0  0  0  0  0  0  0
  130.2016  133.0720  157.5551 N   0  0  0  0  0  0  0  0  0  0  0  0
  130.4843  132.4570  156.8604 H   0  0  0  0  0  0  0  0  0  0  0  0
  131.0124  133.8638  158.2902 C   0  0  0  0  0  0  0  0  0  0  0  0
  130.2435  134.5685  159.1477 C   0  0  0  0  0  0  0  0  0  0  0  0
  130.7330  135.5750  160.1569 C   0  0  0  0  0  0  0  0  0  0  0  0
  130.7634  136.9091  159.5429 N   0  0  0  0  0  0  0  0  0  0  0  0
  131.3854  136.8998  158.7485 H   0  0  0  0  0  0  0  0  0  0  0  0
  129.8345  137.1611  159.2400 H   0  0  0  0  0  0  0  0  0  0  0  0
  131.2405  137.8902  160.5267 C   0  0  0  0  0  0  0  0  0  0  0  0
  130.8158  139.2947  160.0935 C   0  0  0  0  0  0  0  0  0  0  0  0
  130.0270  139.9602  161.2230 C   0  0  0  0  0  0  0  0  0  0  0  0
  130.8030  141.1726  161.7415 C   0  0  0  0  0  0  0  0  0  0  0  0
  131.2196  140.9285  163.1933 C   0  0  0  0  0  0  0  0  0  0  0  0
  132.7457  140.8616  163.2815 C   0  0  0  0  0  0  0  0  0  0  0  0
  133.1703  139.4569  163.7148 C   0  0  0  0  0  0  0  0  0  0  0  0
  133.9593  138.7915  162.5852 C   0  0  0  0  0  0  0  0  0  0  0  0
  133.1832  137.5792  162.0667 C   0  0  0  0  0  0  0  0  0  0  0  0
  132.7666  137.8232  160.6149 C   0  0  0  0  0  0  0  0  0  0  0  0
  127.7483  135.6391  160.6421 O   0  0  0  0  0  0  0  0  0  0  0  0
  126.5475  138.8379  163.3439 C   0  0  0  0  0  0  0  0  0  0  0  0
  126.1971  138.4032  164.7859 C   0  0  0  0  0  0  0  0  0  0  0  0
  127.3441  136.8752  166.0686 H   0  0  0  0  0  0  0  0  0  0  0  0
  128.3564  135.9602  163.9416 H   0  0  0  0  0  0  0  0  0  0  0  0
  125.1957  136.8603  162.3143 H   0  0  0  0  0  0  0  0  0  0  0  0
  124.5714  135.0522  160.4510 H   0  0  0  0  0  0  0  0  0  0  0  0
  126.0754  133.6389  158.7176 H   0  0  0  0  0  0  0  0  0  0  0  0
  132.0875  133.9224  158.2069 H   0  0  0  0  0  0  0  0  0  0  0  0
  130.0611  135.5851  161.0152 H   0  0  0  0  0  0  0  0  0  0  0  0
  131.7365  135.3027  160.4841 H   0  0  0  0  0  0  0  0  0  0  0  0
  130.8099  137.6652  161.5024 H   0  0  0  0  0  0  0  0  0  0  0  0
  131.7017  139.8893  159.8697 H   0  0  0  0  0  0  0  0  0  0  0  0
  130.1897  139.2268  159.2039 H   0  0  0  0  0  0  0  0  0  0  0  0
  129.8826  139.2470  162.0345 H   0  0  0  0  0  0  0  0  0  0  0  0
  129.0565  140.2837  160.8467 H   0  0  0  0  0  0  0  0  0  0  0  0
  130.1701  142.0584  161.6892 H   0  0  0  0  0  0  0  0  0  0  0  0
  131.6918  141.3242  161.1290 H   0  0  0  0  0  0  0  0  0  0  0  0
  130.7940  139.9868  163.5402 H   0  0  0  0  0  0  0  0  0  0  0  0
  130.8551  141.7439  163.8180 H   0  0  0  0  0  0  0  0  0  0  0  0
  133.0997  141.5895  164.0116 H   0  0  0  0  0  0  0  0  0  0  0  0
  133.1763  141.0865  162.3058 H   0  0  0  0  0  0  0  0  0  0  0  0
  132.2846  138.8625  163.9386 H   0  0  0  0  0  0  0  0  0  0  0  0
  133.7965  139.5249  164.6043 H   0  0  0  0  0  0  0  0  0  0  0  0
  134.9296  138.4680  162.9615 H   0  0  0  0  0  0  0  0  0  0  0  0
  134.1035  139.5048  161.7737 H   0  0  0  0  0  0  0  0  0  0  0  0
  132.2945  137.4276  162.6793 H   0  0  0  0  0  0  0  0  0  0  0  0
  133.8161  136.6932  162.1191 H   0  0  0  0  0  0  0  0  0  0  0  0
  133.1311  137.0078  159.9902 H   0  0  0  0  0  0  0  0  0  0  0  0
  133.1922  138.7649  160.2681 H   0  0  0  0  0  0  0  0  0  0  0  0
  127.2805  139.6447  163.3457 H   0  0  0  0  0  0  0  0  0  0  0  0
  125.6521  139.1264  162.7935 H   0  0  0  0  0  0  0  0  0  0  0  0
  126.3710  139.2232  165.4826 H   0  0  0  0  0  0  0  0  0  0  0  0
  125.1604  138.0706  164.8408 H   0  0  0  0  0  0  0  0  0  0  0  0
  1 32  1  0
  1  2  2  0
  1 33  1  0
  2  3  1  0
  2 34  1  0
  3  4  1  6
  3  5  1  0
  3 31  1  0
  5  6  1  0
  5 35  1  0
  6 30  1  0
  6  7  2  0
  7  8  1  0
  7 36  1  0
  8  9  2  0
  8 37  1  0
  9 10  1  0
  9 30  1  0
 10 15  1  0
 10 11  2  0
 11 12  1  0
 12 13  1  0
 12 14  1  0
 14 15  2  0
 14 38  1  0
 15 16  1  0
 16 17  1  0
 16 39  1  0
 16 40  1  0
 17 18  1  0
 17 19  1  0
 17 20  1  0
 20 29  1  0
 20 21  1  0
 20 41  1  0
 21 22  1  0
 21 42  1  0
 21 43  1  0
 22 23  1  0
 22 44  1  0
 22 45  1  0
 23 24  1  0
 23 46  1  0
 23 47  1  0
 24 25  1  0
 24 48  1  0
 24 49  1  0
 25 26  1  0
 25 50  1  0
 25 51  1  0
 26 27  1  0
 26 52  1  0
 26 53  1  0
 27 28  1  0
 27 54  1  0
 27 55  1  0
 28 29  1  0
 28 56  1  0
 28 57  1  0
 29 58  1  0
 29 59  1  0
 31 32  1  0
 31 60  1  0
 31 61  1  0
 32 62  1  0
 32 63  1  0
M  CHG  1  17   1
M  END
>  <DOCK_score>  (1) 
-45.401306

>  <SMILES>  (1) 
C1=C[C@@H](Nc2ccc(-c3n[nH]cc3C[NH2+]C3CCCCCCCCC3)o2)CC1

$$$$
