C[C@@H](Cc1ccccc1O)[NH+]=C1NCCCN1
     RDKit          3D

 37 38  0  0  1  0  0  0  0  0999 V2000
  131.2682  136.1375  161.5704 C   0  0  0  0  0  0  0  0  0  0  0  0
  130.1696  135.6880  160.6049 C   0  0  1  0  0  0  0  0  0  0  0  0
  129.5147  134.9752  161.1061 H   0  0  0  0  0  0  0  0  0  0  0  0
  129.3542  136.9032  160.1588 C   0  0  0  0  0  0  0  0  0  0  0  0
  128.2723  136.4605  159.2077 C   0  0  0  0  0  0  0  0  0  0  0  0
  128.5190  136.4235  157.8486 C   0  0  0  0  0  0  0  0  0  0  0  0
  127.5268  136.0178  156.9757 C   0  0  0  0  0  0  0  0  0  0  0  0
  126.2854  135.6478  157.4599 C   0  0  0  0  0  0  0  0  0  0  0  0
  126.0340  135.6827  158.8176 C   0  0  0  0  0  0  0  0  0  0  0  0
  127.0263  136.0950  159.6954 C   0  0  0  0  0  0  0  0  0  0  0  0
  126.7795  136.1355  161.0313 O   0  0  0  0  0  0  0  0  0  0  0  0
  130.7787  135.0519  159.4342 N   0  0  0  0  0  0  0  0  0  0  0  0
  131.3921  135.5529  158.8743 H   0  0  0  0  0  0  0  0  0  0  0  0
  130.4962  133.8128  159.1450 C   0  0  0  0  0  0  0  0  0  0  0  0
  129.6292  133.0609  159.9230 N   0  0  0  0  0  0  0  0  0  0  0  0
  128.6491  132.2157  159.2150 C   0  0  0  0  0  0  0  0  0  0  0  0
  129.3907  131.3893  158.1581 C   0  0  0  0  0  0  0  0  0  0  0  0
  130.1613  132.3345  157.2292 C   0  0  0  0  0  0  0  0  0  0  0  0
  131.0515  133.1749  158.0461 N   0  0  0  0  0  0  0  0  0  0  0  0
  131.8489  135.2717  161.8884 H   0  0  0  0  0  0  0  0  0  0  0  0
  131.9230  136.8503  161.0693 H   0  0  0  0  0  0  0  0  0  0  0  0
  130.8149  136.6106  162.4415 H   0  0  0  0  0  0  0  0  0  0  0  0
  130.0091  137.6161  159.6577 H   0  0  0  0  0  0  0  0  0  0  0  0
  128.9011  137.3764  161.0298 H   0  0  0  0  0  0  0  0  0  0  0  0
  129.4877  136.7120  157.4680 H   0  0  0  0  0  0  0  0  0  0  0  0
  127.7213  135.9902  155.9138 H   0  0  0  0  0  0  0  0  0  0  0  0
  125.5120  135.3309  156.7759 H   0  0  0  0  0  0  0  0  0  0  0  0
  125.0643  135.3935  159.1953 H   0  0  0  0  0  0  0  0  0  0  0  0
  125.8841  135.8630  161.2742 H   0  0  0  0  0  0  0  0  0  0  0  0
  129.6657  133.0923  160.8919 H   0  0  0  0  0  0  0  0  0  0  0  0
  127.9020  132.8440  158.7300 H   0  0  0  0  0  0  0  0  0  0  0  0
  128.1630  131.5480  159.9264 H   0  0  0  0  0  0  0  0  0  0  0  0
  128.6716  130.8127  157.5760 H   0  0  0  0  0  0  0  0  0  0  0  0
  130.0893  130.7121  158.6495 H   0  0  0  0  0  0  0  0  0  0  0  0
  129.4588  132.9663  156.6858 H   0  0  0  0  0  0  0  0  0  0  0  0
  130.7540  131.7517  156.5241 H   0  0  0  0  0  0  0  0  0  0  0  0
  131.9901  133.2782  157.8247 H   0  0  0  0  0  0  0  0  0  0  0  0
  1  2  1  0
  1 20  1  0
  1 21  1  0
  1 22  1  0
  2  3  1  1
  2  4  1  0
  2 12  1  0
  4  5  1  0
  4 23  1  0
  4 24  1  0
  5 10  1  0
  5  6  2  0
  6  7  1  0
  6 25  1  0
  7  8  2  0
  7 26  1  0
  8  9  1  0
  8 27  1  0
  9 10  2  0
  9 28  1  0
 10 11  1  0
 11 29  1  0
 12 13  1  0
 12 14  2  0
 14 19  1  0
 14 15  1  0
 15 16  1  0
 15 30  1  0
 16 17  1  0
 16 31  1  0
 16 32  1  0
 17 18  1  0
 17 33  1  0
 17 34  1  0
 18 19  1  0
 18 35  1  0
 18 36  1  0
 19 37  1  0
M  CHG  1  12   1
M  END
>  <DOCK_score>  (1) 
-43.817913

>  <SMILES>  (1) 
C[C@@H](Cc1ccccc1O)[NH+]=C1NCCCN1

$$$$
