CCC[NH2+]Cc1c[nH]nc1-c1ccc(N[C@H]2Cc3ccc(Br)cc3C2)o1
     RDKit          3D

 50 53  0  0  1  0  0  0  0  0999 V2000
  134.2025  138.3375  159.2549 C   0  0  0  0  0  0  0  0  0  0  0  0
  133.9525  137.9827  160.7221 C   0  0  0  0  0  0  0  0  0  0  0  0
  132.5173  137.4789  160.8875 C   0  0  0  0  0  0  0  0  0  0  0  0
  132.3183  136.2855  160.0543 N   0  0  0  0  0  0  0  0  0  0  0  0
  132.9632  135.5641  160.3405 H   0  0  0  0  0  0  0  0  0  0  0  0
  132.4832  136.5193  159.0867 H   0  0  0  0  0  0  0  0  0  0  0  0
  130.9404  135.8017  160.2131 C   0  0  0  0  0  0  0  0  0  0  0  0
  130.7361  134.5775  159.3584 C   0  0  0  0  0  0  0  0  0  0  0  0
  131.6625  133.9973  158.5658 C   0  0  0  0  0  0  0  0  0  0  0  0
  131.0906  132.9319  157.9643 N   0  0  0  0  0  0  0  0  0  0  0  0
  131.5240  132.3321  157.3371 H   0  0  0  0  0  0  0  0  0  0  0  0
  129.7630  132.8430  158.4023 N   0  0  0  0  0  0  0  0  0  0  0  0
  129.5437  133.8317  159.2466 C   0  0  0  0  0  0  0  0  0  0  0  0
  128.2731  134.1125  159.9463 C   0  0  0  0  0  0  0  0  0  0  0  0
  127.1268  133.3906  159.8355 C   0  0  0  0  0  0  0  0  0  0  0  0
  126.1754  134.0045  160.6740 C   0  0  0  0  0  0  0  0  0  0  0  0
  126.7838  135.0726  161.2475 C   0  0  0  0  0  0  0  0  0  0  0  0
  126.1965  135.9559  162.1458 N   0  0  0  0  0  0  0  0  0  0  0  0
  127.0161  136.6187  163.1632 C   0  0  1  0  0  0  0  0  0  0  0  0
  127.7981  137.2208  162.7006 H   0  0  0  0  0  0  0  0  0  0  0  0
  126.1414  137.4812  164.0999 C   0  0  0  0  0  0  0  0  0  0  0  0
  126.7821  137.3595  165.4659 C   0  0  0  0  0  0  0  0  0  0  0  0
  126.6318  138.1398  166.6004 C   0  0  0  0  0  0  0  0  0  0  0  0
  127.3293  137.8337  167.7522 C   0  0  0  0  0  0  0  0  0  0  0  0
  128.1813  136.7440  167.7740 C   0  0  0  0  0  0  0  0  0  0  0  0
  129.1387  136.3222  169.3492 Br  0  0  0  0  0  0  0  0  0  0  0  0
  128.3320  135.9643  166.6429 C   0  0  0  0  0  0  0  0  0  0  0  0
  127.6333  136.2707  165.4872 C   0  0  0  0  0  0  0  0  0  0  0  0
  127.6227  135.5862  164.1371 C   0  0  0  0  0  0  0  0  0  0  0  0
  128.0517  135.1295  160.8055 O   0  0  0  0  0  0  0  0  0  0  0  0
  135.2250  138.6965  159.1371 H   0  0  0  0  0  0  0  0  0  0  0  0
  134.0548  137.4520  158.6367 H   0  0  0  0  0  0  0  0  0  0  0  0
  133.5060  139.1167  158.9456 H   0  0  0  0  0  0  0  0  0  0  0  0
  134.1002  138.8684  161.3402 H   0  0  0  0  0  0  0  0  0  0  0  0
  134.6491  137.2035  161.0312 H   0  0  0  0  0  0  0  0  0  0  0  0
  131.8208  138.2581  160.5783 H   0  0  0  0  0  0  0  0  0  0  0  0
  132.3392  137.2262  161.9327 H   0  0  0  0  0  0  0  0  0  0  0  0
  130.2438  136.5810  159.9039 H   0  0  0  0  0  0  0  0  0  0  0  0
  130.7622  135.5490  161.2583 H   0  0  0  0  0  0  0  0  0  0  0  0
  132.6816  134.3297  158.4327 H   0  0  0  0  0  0  0  0  0  0  0  0
  126.9757  132.5124  159.2255 H   0  0  0  0  0  0  0  0  0  0  0  0
  125.1551  133.6862  160.8291 H   0  0  0  0  0  0  0  0  0  0  0  0
  125.2441  136.1335  162.0990 H   0  0  0  0  0  0  0  0  0  0  0  0
  125.1221  137.0957  164.1246 H   0  0  0  0  0  0  0  0  0  0  0  0
  126.1440  138.5209  163.7722 H   0  0  0  0  0  0  0  0  0  0  0  0
  125.9670  138.9908  166.5839 H   0  0  0  0  0  0  0  0  0  0  0  0
  127.2097  138.4443  168.6350 H   0  0  0  0  0  0  0  0  0  0  0  0
  128.9973  135.1136  166.6604 H   0  0  0  0  0  0  0  0  0  0  0  0
  128.6383  135.3316  163.8342 H   0  0  0  0  0  0  0  0  0  0  0  0
  127.0033  134.6901  164.1723 H   0  0  0  0  0  0  0  0  0  0  0  0
  1  2  1  0
  1 31  1  0
  1 32  1  0
  1 33  1  0
  2  3  1  0
  2 34  1  0
  2 35  1  0
  3  4  1  0
  3 36  1  0
  3 37  1  0
  4  5  1  0
  4  6  1  0
  4  7  1  0
  7  8  1  0
  7 38  1  0
  7 39  1  0
  8 13  1  0
  8  9  2  0
  9 10  1  0
  9 40  1  0
 10 11  1  0
 10 12  1  0
 12 13  2  0
 13 14  1  0
 14 30  1  0
 14 15  2  0
 15 16  1  0
 15 41  1  0
 16 17  2  0
 16 42  1  0
 17 18  1  0
 17 30  1  0
 18 19  1  0
 18 43  1  0
 19 20  1  6
 19 29  1  0
 19 21  1  0
 21 22  1  0
 21 44  1  0
 21 45  1  0
 22 28  2  0
 22 23  1  0
 23 24  2  0
 23 46  1  0
 24 25  1  0
 24 47  1  0
 25 26  1  0
 25 27  2  0
 27 28  1  0
 27 48  1  0
 28 29  1  0
 29 49  1  0
 29 50  1  0
M  CHG  1   4   1
M  END
>  <DOCK_score>  (1) 
-44.704041

>  <SMILES>  (1) 
CCC[NH2+]Cc1c[nH]nc1-c1ccc(N[C@H]2Cc3ccc(Br)cc3C2)o1

$$$$
