CCc1ccc(-c2c[nH]c(NC(c3ccc(CC)cc3)[C@H]3CC(O)C3(C)C)[nH+]2)cc1
     RDKit          3D

 64 67  0  0  1  0  0  0  0  0999 V2000
  130.5899  128.9714  151.9654 C   0  0  0  0  0  0  0  0  0  0  0  0
  131.8381  129.6611  152.5197 C   0  0  0  0  0  0  0  0  0  0  0  0
  131.4739  130.4398  153.7573 C   0  0  0  0  0  0  0  0  0  0  0  0
  131.5403  129.8319  154.9981 C   0  0  0  0  0  0  0  0  0  0  0  0
  131.2126  130.5417  156.1355 C   0  0  0  0  0  0  0  0  0  0  0  0
  130.8038  131.8701  156.0312 C   0  0  0  0  0  0  0  0  0  0  0  0
  130.4453  132.6366  157.2494 C   0  0  0  0  0  0  0  0  0  0  0  0
  129.9261  132.1225  158.3918 C   0  0  0  0  0  0  0  0  0  0  0  0
  129.7476  133.1741  159.2573 N   0  0  0  0  0  0  0  0  0  0  0  0
  129.3909  133.1229  160.1578 H   0  0  0  0  0  0  0  0  0  0  0  0
  130.1634  134.3013  158.6179 C   0  0  0  0  0  0  0  0  0  0  0  0
  130.1485  135.5806  159.1469 N   0  0  0  0  0  0  0  0  0  0  0  0
  130.3050  135.7782  160.5900 C   0  0  1  0  0  0  0  0  0  0  0  0
  131.5260  136.6217  160.8521 C   0  0  0  0  0  0  0  0  0  0  0  0
  131.4157  137.9985  160.9093 C   0  0  0  0  0  0  0  0  0  0  0  0
  132.5350  138.7720  161.1540 C   0  0  0  0  0  0  0  0  0  0  0  0
  133.7663  138.1690  161.3323 C   0  0  0  0  0  0  0  0  0  0  0  0
  134.9868  139.0130  161.5952 C   0  0  0  0  0  0  0  0  0  0  0  0
  135.1526  139.2137  163.1031 C   0  0  0  0  0  0  0  0  0  0  0  0
  133.8774  136.7928  161.2697 C   0  0  0  0  0  0  0  0  0  0  0  0
  132.7574  136.0190  161.0294 C   0  0  0  0  0  0  0  0  0  0  0  0
  129.0674  136.4862  161.1450 C   0  0  1  0  0  0  0  0  0  0  0  0
  128.8999  137.4634  160.6919 H   0  0  0  0  0  0  0  0  0  0  0  0
  127.8121  135.5985  161.1764 C   0  0  0  0  0  0  0  0  0  0  0  0
  127.4933  136.2333  162.5405 C   0  0  2  0  0  0  0  0  0  0  0  0
  126.7092  137.4243  162.4482 O   0  0  0  0  0  0  0  0  0  0  0  0
  129.0016  136.4981  162.6813 C   0  0  0  0  0  0  0  0  0  0  0  0
  129.7674  135.3470  163.3365 C   0  0  0  0  0  0  0  0  0  0  0  0
  129.3299  137.8592  163.2984 C   0  0  0  0  0  0  0  0  0  0  0  0
  130.5844  133.9754  157.4202 N   0  0  0  0  0  0  0  0  0  0  0  0
  130.9371  134.5929  156.7605 H   0  0  0  0  0  0  0  0  0  0  0  0
  130.7337  132.4758  154.7778 C   0  0  0  0  0  0  0  0  0  0  0  0
  131.0689  131.7579  153.6477 C   0  0  0  0  0  0  0  0  0  0  0  0
  130.8534  128.4080  151.0701 H   0  0  0  0  0  0  0  0  0  0  0  0
  129.8408  129.7223  151.7147 H   0  0  0  0  0  0  0  0  0  0  0  0
  130.1865  128.2921  152.7162 H   0  0  0  0  0  0  0  0  0  0  0  0
  132.5874  128.9100  152.7701 H   0  0  0  0  0  0  0  0  0  0  0  0
  132.2415  130.3403  151.7686 H   0  0  0  0  0  0  0  0  0  0  0  0
  131.8529  128.8012  155.0773 H   0  0  0  0  0  0  0  0  0  0  0  0
  131.2683  130.0673  157.1041 H   0  0  0  0  0  0  0  0  0  0  0  0
  129.6965  131.0848  158.5842 H   0  0  0  0  0  0  0  0  0  0  0  0
  130.0343  136.3459  158.5621 H   0  0  0  0  0  0  0  0  0  0  0  0
  130.4200  134.8108  161.0790 H   0  0  0  0  0  0  0  0  0  0  0  0
  130.4544  138.4696  160.7663 H   0  0  0  0  0  0  0  0  0  0  0  0
  132.4479  139.8474  161.2032 H   0  0  0  0  0  0  0  0  0  0  0  0
  135.8684  138.5103  161.1967 H   0  0  0  0  0  0  0  0  0  0  0  0
  134.8706  139.9818  161.1103 H   0  0  0  0  0  0  0  0  0  0  0  0
  134.2712  139.7159  163.5016 H   0  0  0  0  0  0  0  0  0  0  0  0
  135.2691  138.2446  163.5882 H   0  0  0  0  0  0  0  0  0  0  0  0
  136.0356  139.8238  163.2934 H   0  0  0  0  0  0  0  0  0  0  0  0
  134.8393  136.3219  161.4091 H   0  0  0  0  0  0  0  0  0  0  0  0
  132.8443  134.9437  160.9806 H   0  0  0  0  0  0  0  0  0  0  0  0
  127.0857  135.8419  160.4012 H   0  0  0  0  0  0  0  0  0  0  0  0
  128.0324  134.5323  161.2303 H   0  0  0  0  0  0  0  0  0  0  0  0
  127.1042  135.5246  163.2716 H   0  0  0  0  0  0  0  0  0  0  0  0
  125.7651  137.2642  162.3135 H   0  0  0  0  0  0  0  0  0  0  0  0
  130.8338  135.4633  163.1430 H   0  0  0  0  0  0  0  0  0  0  0  0
  129.5900  135.3581  164.4120 H   0  0  0  0  0  0  0  0  0  0  0  0
  129.4240  134.3994  162.9214 H   0  0  0  0  0  0  0  0  0  0  0  0
  128.6197  138.6028  162.9366 H   0  0  0  0  0  0  0  0  0  0  0  0
  129.2633  137.7914  164.3841 H   0  0  0  0  0  0  0  0  0  0  0  0
  130.3402  138.1529  163.0138 H   0  0  0  0  0  0  0  0  0  0  0  0
  130.4180  133.5051  154.6911 H   0  0  0  0  0  0  0  0  0  0  0  0
  131.0153  132.2263  152.6761 H   0  0  0  0  0  0  0  0  0  0  0  0
  1  2  1  0
  1 34  1  0
  1 35  1  0
  1 36  1  0
  2  3  1  0
  2 37  1  0
  2 38  1  0
  3 33  2  0
  3  4  1  0
  4  5  2  0
  4 39  1  0
  5  6  1  0
  5 40  1  0
  6  7  1  0
  6 32  2  0
  7 30  1  0
  7  8  2  0
  8  9  1  0
  8 41  1  0
  9 10  1  0
  9 11  1  0
 11 12  1  0
 11 30  2  0
 12 13  1  0
 12 42  1  0
 13 14  1  0
 13 22  1  0
 13 43  1  1
 14 21  1  0
 14 15  2  0
 15 16  1  0
 15 44  1  0
 16 17  2  0
 16 45  1  0
 17 18  1  0
 17 20  1  0
 18 19  1  0
 18 46  1  0
 18 47  1  0
 19 48  1  0
 19 49  1  0
 19 50  1  0
 20 21  2  0
 20 51  1  0
 21 52  1  0
 22 23  1  6
 22 27  1  0
 22 24  1  0
 24 25  1  0
 24 53  1  0
 24 54  1  0
 25 26  1  0
 25 27  1  0
 25 55  1  1
 26 56  1  0
 27 28  1  0
 27 29  1  0
 28 57  1  0
 28 58  1  0
 28 59  1  0
 29 60  1  0
 29 61  1  0
 29 62  1  0
 30 31  1  0
 32 33  1  0
 32 63  1  0
 33 64  1  0
M  CHG  1  30   1
M  END
>  <DOCK_score>  (1) 
-51.948307

>  <SMILES>  (1) 
CCc1ccc(-c2c[nH]c(NC(c3ccc(CC)cc3)[C@H]3CC(O)C3(C)C)[nH+]2)cc1

$$$$
