O=C1NCC(NC(N[C@@H]2Cc3ccc(Cl)cc3C2)=[NH+]C2CC2)CN1
     RDKit          3D

 47 50  0  0  1  0  0  0  0  0999 V2000
  124.2388  133.6755  161.3793 O   0  0  0  0  0  0  0  0  0  0  0  0
  125.4224  133.9538  161.3755 C   0  0  0  0  0  0  0  0  0  0  0  0
  126.2696  133.1556  160.7088 N   0  0  0  0  0  0  0  0  0  0  0  0
  127.7072  133.4295  160.6759 C   0  0  0  0  0  0  0  0  0  0  0  0
  127.9344  134.9394  160.8059 C   0  0  0  0  0  0  0  0  0  0  0  0
  129.3708  135.2154  160.8891 N   0  0  0  0  0  0  0  0  0  0  0  0
  130.2029  134.8440  159.8598 C   0  0  0  0  0  0  0  0  0  0  0  0
  131.5509  135.1030  159.9380 N   0  0  0  0  0  0  0  0  0  0  0  0
  132.2151  135.1404  161.2432 C   0  0  2  0  0  0  0  0  0  0  0  0
  131.5027  134.9434  162.0445 H   0  0  0  0  0  0  0  0  0  0  0  0
  132.9236  136.4943  161.4598 C   0  0  0  0  0  0  0  0  0  0  0  0
  134.1833  136.1592  162.2354 C   0  0  0  0  0  0  0  0  0  0  0  0
  135.0278  136.9765  162.9685 C   0  0  0  0  0  0  0  0  0  0  0  0
  136.1315  136.4437  163.6047 C   0  0  0  0  0  0  0  0  0  0  0  0
  136.3958  135.0887  163.5095 C   0  0  0  0  0  0  0  0  0  0  0  0
  137.7829  134.4156  164.3072 Cl  0  0  0  0  0  0  0  0  0  0  0  0
  135.5544  134.2723  162.7774 C   0  0  0  0  0  0  0  0  0  0  0  0
  134.4468  134.8057  162.1400 C   0  0  0  0  0  0  0  0  0  0  0  0
  133.3866  134.1366  161.2917 C   0  0  0  0  0  0  0  0  0  0  0  0
  129.7141  134.2463  158.8097 N   0  0  0  0  0  0  0  0  0  0  0  0
  128.8051  134.4309  158.5258 H   0  0  0  0  0  0  0  0  0  0  0  0
  130.5373  133.2955  158.0584 C   0  0  0  0  0  0  0  0  0  0  0  0
  129.9403  131.9160  157.7725 C   0  0  0  0  0  0  0  0  0  0  0  0
  131.0578  132.0665  158.8066 C   0  0  0  0  0  0  0  0  0  0  0  0
  127.2414  135.4291  162.0819 C   0  0  0  0  0  0  0  0  0  0  0  0
  125.8292  135.0466  162.0385 N   0  0  0  0  0  0  0  0  0  0  0  0
  125.9225  132.3814  160.2387 H   0  0  0  0  0  0  0  0  0  0  0  0
  128.1233  133.0784  159.7318 H   0  0  0  0  0  0  0  0  0  0  0  0
  128.1960  132.9150  161.5033 H   0  0  0  0  0  0  0  0  0  0  0  0
  127.5135  135.4489  159.9389 H   0  0  0  0  0  0  0  0  0  0  0  0
  129.7346  135.6602  161.6707 H   0  0  0  0  0  0  0  0  0  0  0  0
  132.0629  135.2571  159.1288 H   0  0  0  0  0  0  0  0  0  0  0  0
  133.1796  136.9449  160.5007 H   0  0  0  0  0  0  0  0  0  0  0  0
  132.2878  137.1661  162.0363 H   0  0  0  0  0  0  0  0  0  0  0  0
  134.8221  138.0340  163.0432 H   0  0  0  0  0  0  0  0  0  0  0  0
  136.7879  137.0838  164.1754 H   0  0  0  0  0  0  0  0  0  0  0  0
  135.7607  133.2148  162.7033 H   0  0  0  0  0  0  0  0  0  0  0  0
  133.0658  133.2031  161.7542 H   0  0  0  0  0  0  0  0  0  0  0  0
  133.7672  133.9509  160.2875 H   0  0  0  0  0  0  0  0  0  0  0  0
  131.1834  133.7322  157.2970 H   0  0  0  0  0  0  0  0  0  0  0  0
  128.9350  131.7160  158.1434 H   0  0  0  0  0  0  0  0  0  0  0  0
  130.1934  131.4451  156.8227 H   0  0  0  0  0  0  0  0  0  0  0  0
  132.0464  131.6945  158.5370 H   0  0  0  0  0  0  0  0  0  0  0  0
  130.7879  131.9655  159.8578 H   0  0  0  0  0  0  0  0  0  0  0  0
  127.7155  134.9739  162.9515 H   0  0  0  0  0  0  0  0  0  0  0  0
  127.3232  136.5140  162.1474 H   0  0  0  0  0  0  0  0  0  0  0  0
  125.1741  135.5950  162.4979 H   0  0  0  0  0  0  0  0  0  0  0  0
  1  2  2  0
  2 26  1  0
  2  3  1  0
  3  4  1  0
  3 27  1  0
  4  5  1  0
  4 28  1  0
  4 29  1  0
  5  6  1  0
  5 25  1  0
  5 30  1  0
  6 31  1  0
  7  6  1  0
  7  8  1  0
  7 20  2  0
  8  9  1  0
  8 32  1  0
  9 10  1  1
  9 19  1  0
  9 11  1  0
 11 12  1  0
 11 33  1  0
 11 34  1  0
 12 18  2  0
 12 13  1  0
 13 14  2  0
 13 35  1  0
 14 15  1  0
 14 36  1  0
 15 16  1  0
 15 17  2  0
 17 18  1  0
 17 37  1  0
 18 19  1  0
 19 38  1  0
 19 39  1  0
 20 21  1  0
 20 22  1  0
 22 24  1  0
 22 23  1  0
 22 40  1  0
 23 24  1  0
 23 41  1  0
 23 42  1  0
 24 43  1  0
 24 44  1  0
 25 26  1  0
 25 45  1  0
 25 46  1  0
 26 47  1  0
M  CHG  1  20   1
M  END
>  <DOCK_score>  (1) 
-44.403316

>  <SMILES>  (1) 
O=C1NCC(NC(N[C@@H]2Cc3ccc(Cl)cc3C2)=[NH+]C2CC2)CN1

$$$$
