CC(C)(Oc1cccc(CC2=CCC[N@H+](Cc3c[nH]c4ccccc34)C2)c1)C(F)(F)F
     RDKit          3D

 59 62  0  0  1  0  0  0  0  0999 V2000
  129.4953  139.2882  164.0575 C   0  0  0  0  0  0  0  0  0  0  0  0
  129.9822  140.3088  163.0269 C   0  0  0  0  0  0  0  0  0  0  0  0
  131.4784  140.5598  163.2251 C   0  0  0  0  0  0  0  0  0  0  0  0
  129.7545  139.8020  161.7104 O   0  0  0  0  0  0  0  0  0  0  0  0
  130.7523  139.0688  161.1505 C   0  0  0  0  0  0  0  0  0  0  0  0
  131.7356  139.6940  160.3972 C   0  0  0  0  0  0  0  0  0  0  0  0
  132.7489  138.9467  159.8295 C   0  0  0  0  0  0  0  0  0  0  0  0
  132.7869  137.5770  160.0157 C   0  0  0  0  0  0  0  0  0  0  0  0
  131.8055  136.9509  160.7614 C   0  0  0  0  0  0  0  0  0  0  0  0
  131.8472  135.4573  160.9579 C   0  0  0  0  0  0  0  0  0  0  0  0
  131.0754  134.7835  159.8527 C   0  0  0  0  0  0  0  0  0  0  0  0
  131.7032  133.9481  159.0810 C   0  0  0  0  0  0  0  0  0  0  0  0
  131.0236  133.2190  157.9550 C   0  0  0  0  0  0  0  0  0  0  0  0
  129.6861  133.8965  157.6353 C   0  0  0  0  0  0  0  0  0  0  0  0
  128.9460  134.0819  158.8938 N   0  0  2  0  0  0  0  0  0  0  0  0
  128.9264  133.2125  159.4054 H   0  0  0  0  0  0  0  0  0  0  0  0
  127.5722  134.5096  158.5981 C   0  0  0  0  0  0  0  0  0  0  0  0
  126.8164  134.6988  159.8881 C   0  0  0  0  0  0  0  0  0  0  0  0
  126.7251  135.8324  160.6013 C   0  0  0  0  0  0  0  0  0  0  0  0
  125.9549  135.6235  161.7127 N   0  0  0  0  0  0  0  0  0  0  0  0
  125.7461  136.2956  162.3803 H   0  0  0  0  0  0  0  0  0  0  0  0
  125.5205  134.3173  161.7425 C   0  0  0  0  0  0  0  0  0  0  0  0
  124.7292  133.5909  162.6267 C   0  0  0  0  0  0  0  0  0  0  0  0
  124.4531  132.2664  162.3678 C   0  0  0  0  0  0  0  0  0  0  0  0
  124.9677  131.6433  161.2390 C   0  0  0  0  0  0  0  0  0  0  0  0
  125.7508  132.3363  160.3598 C   0  0  0  0  0  0  0  0  0  0  0  0
  126.0364  133.6822  160.5982 C   0  0  0  0  0  0  0  0  0  0  0  0
  129.6184  135.1098  159.6972 C   0  0  0  0  0  0  0  0  0  0  0  0
  130.7898  137.6939  161.3313 C   0  0  0  0  0  0  0  0  0  0  0  0
  129.2166  141.6211  163.2077 C   0  0  0  0  0  0  0  0  0  0  0  0
  129.4395  142.1173  164.4967 F   0  0  0  0  0  0  0  0  0  0  0  0
  129.6616  142.5544  162.2653 F   0  0  0  0  0  0  0  0  0  0  0  0
  127.8485  141.3916  163.0267 F   0  0  0  0  0  0  0  0  0  0  0  0
  129.8847  138.3022  163.8044 H   0  0  0  0  0  0  0  0  0  0  0  0
  129.8488  139.5751  165.0480 H   0  0  0  0  0  0  0  0  0  0  0  0
  128.4057  139.2604  164.0547 H   0  0  0  0  0  0  0  0  0  0  0  0
  131.7556  141.4993  162.7470 H   0  0  0  0  0  0  0  0  0  0  0  0
  131.6994  140.6155  164.2911 H   0  0  0  0  0  0  0  0  0  0  0  0
  132.0459  139.7434  162.7786 H   0  0  0  0  0  0  0  0  0  0  0  0
  131.7087  140.7643  160.2552 H   0  0  0  0  0  0  0  0  0  0  0  0
  133.5146  139.4330  159.2434 H   0  0  0  0  0  0  0  0  0  0  0  0
  133.5826  136.9948  159.5748 H   0  0  0  0  0  0  0  0  0  0  0  0
  131.4001  135.2048  161.9194 H   0  0  0  0  0  0  0  0  0  0  0  0
  132.8825  135.1170  160.9380 H   0  0  0  0  0  0  0  0  0  0  0  0
  132.7541  133.7701  159.2549 H   0  0  0  0  0  0  0  0  0  0  0  0
  131.6613  133.2404  157.0714 H   0  0  0  0  0  0  0  0  0  0  0  0
  130.8443  132.1845  158.2484 H   0  0  0  0  0  0  0  0  0  0  0  0
  129.1066  133.2680  156.9591 H   0  0  0  0  0  0  0  0  0  0  0  0
  129.8688  134.8661  157.1719 H   0  0  0  0  0  0  0  0  0  0  0  0
  127.5948  135.4509  158.0489 H   0  0  0  0  0  0  0  0  0  0  0  0
  127.0766  133.7489  157.9950 H   0  0  0  0  0  0  0  0  0  0  0  0
  127.1913  136.7702  160.3373 H   0  0  0  0  0  0  0  0  0  0  0  0
  124.3231  134.0670  163.5069 H   0  0  0  0  0  0  0  0  0  0  0  0
  123.8354  131.7052  163.0534 H   0  0  0  0  0  0  0  0  0  0  0  0
  124.7469  130.6024  161.0542 H   0  0  0  0  0  0  0  0  0  0  0  0
  126.1475  131.8450  159.4838 H   0  0  0  0  0  0  0  0  0  0  0  0
  129.5161  136.0766  159.2044 H   0  0  0  0  0  0  0  0  0  0  0  0
  129.1554  135.1570  160.6828 H   0  0  0  0  0  0  0  0  0  0  0  0
  130.0254  137.2048  161.9170 H   0  0  0  0  0  0  0  0  0  0  0  0
  1  2  1  0
  1 34  1  0
  1 35  1  0
  1 36  1  0
  2  3  1  0
  2  4  1  0
  2 30  1  0
  3 37  1  0
  3 38  1  0
  3 39  1  0
  4  5  1  0
  5 29  2  0
  5  6  1  0
  6  7  2  0
  6 40  1  0
  7  8  1  0
  7 41  1  0
  8  9  2  0
  8 42  1  0
  9 10  1  0
  9 29  1  0
 10 11  1  0
 10 43  1  0
 10 44  1  0
 11 28  1  0
 11 12  2  0
 12 13  1  0
 12 45  1  0
 13 14  1  0
 13 46  1  0
 13 47  1  0
 14 15  1  0
 14 48  1  0
 14 49  1  0
 15 16  1  1
 15 17  1  0
 15 28  1  0
 17 18  1  0
 17 50  1  0
 17 51  1  0
 18 27  1  0
 18 19  2  0
 19 20  1  0
 19 52  1  0
 20 21  1  0
 20 22  1  0
 22 27  2  0
 22 23  1  0
 23 24  2  0
 23 53  1  0
 24 25  1  0
 24 54  1  0
 25 26  2  0
 25 55  1  0
 26 27  1  0
 26 56  1  0
 28 57  1  0
 28 58  1  0
 29 59  1  0
 30 31  1  0
 30 32  1  0
 30 33  1  0
M  CHG  1  15   1
M  END
>  <DOCK_score>  (1) 
-45.530518

>  <SMILES>  (1) 
CC(C)(Oc1cccc(CC2=CCC[N@H+](Cc3c[nH]c4ccccc34)C2)c1)C(F)(F)F

$$$$
