CCC=C[C@@H](Nc1[nH]cc(-c2ccc(CC)cc2)[nH+]1)c1ccc(CC)cc1
     RDKit          3D

 57 59  0  0  1  0  0  0  0  0999 V2000
  125.5409  134.9893  159.7923 C   0  0  0  0  0  0  0  0  0  0  0  0
  126.2998  135.5761  160.9842 C   0  0  0  0  0  0  0  0  0  0  0  0
  127.7367  135.1242  160.9366 C   0  0  0  0  0  0  0  0  0  0  0  0
  128.6277  135.8406  160.2970 C   0  0  0  0  0  0  0  0  0  0  0  0
  130.0646  135.3887  160.2493 C   0  0  1  0  0  0  0  0  0  0  0  0
  130.1695  134.4530  160.7985 H   0  0  0  0  0  0  0  0  0  0  0  0
  130.4662  135.1846  158.8553 N   0  0  0  0  0  0  0  0  0  0  0  0
  130.2988  133.9454  158.2610 C   0  0  0  0  0  0  0  0  0  0  0  0
  129.7805  132.8408  158.8638 N   0  0  0  0  0  0  0  0  0  0  0  0
  129.4644  132.7805  159.7789 H   0  0  0  0  0  0  0  0  0  0  0  0
  129.7872  131.8269  157.9370 C   0  0  0  0  0  0  0  0  0  0  0  0
  130.3088  132.3406  156.7955 C   0  0  0  0  0  0  0  0  0  0  0  0
  130.5117  131.6084  155.5215 C   0  0  0  0  0  0  0  0  0  0  0  0
  129.8778  132.0406  154.3578 C   0  0  0  0  0  0  0  0  0  0  0  0
  130.0706  131.3557  153.1753 C   0  0  0  0  0  0  0  0  0  0  0  0
  130.8912  130.2421  153.1438 C   0  0  0  0  0  0  0  0  0  0  0  0
  131.0978  129.4983  151.8495 C   0  0  0  0  0  0  0  0  0  0  0  0
  130.0319  128.4094  151.7112 C   0  0  0  0  0  0  0  0  0  0  0  0
  131.5181  129.8056  154.2965 C   0  0  0  0  0  0  0  0  0  0  0  0
  131.3371  130.4861  155.4835 C   0  0  0  0  0  0  0  0  0  0  0  0
  130.6181  133.6413  157.0268 N   0  0  0  0  0  0  0  0  0  0  0  0
  131.0108  134.2495  156.3812 H   0  0  0  0  0  0  0  0  0  0  0  0
  130.9430  136.4405  160.8762 C   0  0  0  0  0  0  0  0  0  0  0  0
  130.9768  137.7175  160.3481 C   0  0  0  0  0  0  0  0  0  0  0  0
  131.7793  138.6835  160.9259 C   0  0  0  0  0  0  0  0  0  0  0  0
  132.5553  138.3698  162.0259 C   0  0  0  0  0  0  0  0  0  0  0  0
  133.4338  139.4215  162.6530 C   0  0  0  0  0  0  0  0  0  0  0  0
  134.8136  139.3934  161.9927 C   0  0  0  0  0  0  0  0  0  0  0  0
  132.5251  137.0915  162.5513 C   0  0  0  0  0  0  0  0  0  0  0  0
  131.7195  136.1267  161.9761 C   0  0  0  0  0  0  0  0  0  0  0  0
  125.5813  133.9009  159.8359 H   0  0  0  0  0  0  0  0  0  0  0  0
  124.5016  135.3161  159.8266 H   0  0  0  0  0  0  0  0  0  0  0  0
  125.9993  135.3329  158.8650 H   0  0  0  0  0  0  0  0  0  0  0  0
  125.8413  135.2325  161.9115 H   0  0  0  0  0  0  0  0  0  0  0  0
  126.2594  136.6644  160.9405 H   0  0  0  0  0  0  0  0  0  0  0  0
  128.0319  134.2099  161.4299 H   0  0  0  0  0  0  0  0  0  0  0  0
  128.3325  136.7549  159.8037 H   0  0  0  0  0  0  0  0  0  0  0  0
  130.8493  135.9177  158.3486 H   0  0  0  0  0  0  0  0  0  0  0  0
  129.4426  130.8147  158.0882 H   0  0  0  0  0  0  0  0  0  0  0  0
  129.2369  132.9095  154.3816 H   0  0  0  0  0  0  0  0  0  0  0  0
  129.5796  131.6895  152.2730 H   0  0  0  0  0  0  0  0  0  0  0  0
  132.0869  129.0418  151.8465 H   0  0  0  0  0  0  0  0  0  0  0  0
  131.0161  130.1942  151.0136 H   0  0  0  0  0  0  0  0  0  0  0  0
  129.0425  128.8665  151.7138 H   0  0  0  0  0  0  0  0  0  0  0  0
  130.1814  127.8716  150.7749 H   0  0  0  0  0  0  0  0  0  0  0  0
  130.1131  127.7140  152.5466 H   0  0  0  0  0  0  0  0  0  0  0  0
  132.1537  128.9331  154.2669 H   0  0  0  0  0  0  0  0  0  0  0  0
  131.8309  130.1470  156.3822 H   0  0  0  0  0  0  0  0  0  0  0  0
  130.3736  137.9613  159.4860 H   0  0  0  0  0  0  0  0  0  0  0  0
  131.8025  139.6822  160.5157 H   0  0  0  0  0  0  0  0  0  0  0  0
  132.9829  140.4036  162.5107 H   0  0  0  0  0  0  0  0  0  0  0  0
  133.5370  139.2203  163.7193 H   0  0  0  0  0  0  0  0  0  0  0  0
  135.4490  140.1542  162.4462 H   0  0  0  0  0  0  0  0  0  0  0  0
  135.2646  138.4112  162.1351 H   0  0  0  0  0  0  0  0  0  0  0  0
  134.7104  139.5946  160.9265 H   0  0  0  0  0  0  0  0  0  0  0  0
  133.1315  136.8464  163.4108 H   0  0  0  0  0  0  0  0  0  0  0  0
  131.6961  135.1279  162.3863 H   0  0  0  0  0  0  0  0  0  0  0  0
  1  2  1  0
  1 31  1  0
  1 32  1  0
  1 33  1  0
  2  3  1  0
  2 34  1  0
  2 35  1  0
  3  4  2  0
  3 36  1  0
  4  5  1  0
  4 37  1  0
  5  6  1  1
  5  7  1  0
  5 23  1  0
  7 38  1  0
  8  7  1  0
  8 21  2  0
  8  9  1  0
  9 10  1  0
  9 11  1  0
 11 12  2  0
 11 39  1  0
 12 13  1  0
 12 21  1  0
 13 20  1  0
 13 14  2  0
 14 15  1  0
 14 40  1  0
 15 16  2  0
 15 41  1  0
 16 17  1  0
 16 19  1  0
 17 18  1  0
 17 42  1  0
 17 43  1  0
 18 44  1  0
 18 45  1  0
 18 46  1  0
 19 20  2  0
 19 47  1  0
 20 48  1  0
 21 22  1  0
 23 30  1  0
 23 24  2  0
 24 25  1  0
 24 49  1  0
 25 26  2  0
 25 50  1  0
 26 27  1  0
 26 29  1  0
 27 28  1  0
 27 51  1  0
 27 52  1  0
 28 53  1  0
 28 54  1  0
 28 55  1  0
 29 30  2  0
 29 56  1  0
 30 57  1  0
M  CHG  1  21   1
M  END
>  <DOCK_score>  (1) 
-57.53159

>  <SMILES>  (1) 
CCC=C[C@@H](Nc1[nH]cc(-c2ccc(CC)cc2)[nH+]1)c1ccc(CC)cc1

$$$$
