O=C1SCC[C@@H]1NC(NC1CC=C(CC2CC=CC2)C1)=[NH+]C1C=CCCC1
     RDKit          3D

 59 62  0  0  1  0  0  0  0  0999 V2000
  126.0945  135.2098  161.6648 O   0  0  0  0  0  0  0  0  0  0  0  0
  126.1553  134.2001  160.9946 C   0  0  0  0  0  0  0  0  0  0  0  0
  125.2003  132.7898  161.2157 S   0  0  0  0  0  0  0  0  0  0  0  0
  125.9249  131.7939  159.8768 C   0  0  0  0  0  0  0  0  0  0  0  0
  127.2735  132.4759  159.5792 C   0  0  0  0  0  0  0  0  0  0  0  0
  127.0802  133.9724  159.8302 C   0  0  2  0  0  0  0  0  0  0  0  0
  126.6553  134.4331  158.9383 H   0  0  0  0  0  0  0  0  0  0  0  0
  128.3792  134.5856  160.1180 N   0  0  0  0  0  0  0  0  0  0  0  0
  129.3954  134.5084  159.1952 C   0  0  0  0  0  0  0  0  0  0  0  0
  130.6145  135.0838  159.4654 N   0  0  0  0  0  0  0  0  0  0  0  0
  130.8306  135.7793  160.7365 C   0  0  1  0  0  0  0  0  0  0  0  0
  130.8206  134.7858  161.9215 C   0  0  0  0  0  0  0  0  0  0  0  0
  131.8794  135.3043  162.8666 C   0  0  0  0  0  0  0  0  0  0  0  0
  132.6686  136.1540  162.2674 C   0  0  0  0  0  0  0  0  0  0  0  0
  133.8277  136.8536  162.9295 C   0  0  0  0  0  0  0  0  0  0  0  0
  133.6124  138.3671  162.8680 C   0  0  0  0  0  0  0  0  0  0  0  0
  134.6752  139.1135  163.7073 C   0  0  0  0  0  0  0  0  0  0  0  0
  133.9285  140.2685  164.3332 C   0  0  0  0  0  0  0  0  0  0  0  0
  132.6381  140.0825  164.2715 C   0  0  0  0  0  0  0  0  0  0  0  0
  132.3089  138.7725  163.5944 C   0  0  0  0  0  0  0  0  0  0  0  0
  132.2674  136.3448  160.8226 C   0  0  0  0  0  0  0  0  0  0  0  0
  129.2032  133.8895  158.0644 N   0  0  0  0  0  0  0  0  0  0  0  0
  128.3179  133.8660  157.6688 H   0  0  0  0  0  0  0  0  0  0  0  0
  130.3242  133.2292  157.3910 C   0  0  1  0  0  0  0  0  0  0  0  0
  130.9043  132.1845  158.2988 C   0  0  0  0  0  0  0  0  0  0  0  0
  131.2610  131.0027  157.9095 C   0  0  0  0  0  0  0  0  0  0  0  0
  131.1346  130.5083  156.4983 C   0  0  0  0  0  0  0  0  0  0  0  0
  130.9433  131.6875  155.5419 C   0  0  0  0  0  0  0  0  0  0  0  0
  129.8287  132.5847  156.0946 C   0  0  0  0  0  0  0  0  0  0  0  0
  126.0822  130.7674  160.2080 H   0  0  0  0  0  0  0  0  0  0  0  0
  125.2839  131.8167  158.9955 H   0  0  0  0  0  0  0  0  0  0  0  0
  127.5553  132.3060  158.5400 H   0  0  0  0  0  0  0  0  0  0  0  0
  128.0442  132.0837  160.2427 H   0  0  0  0  0  0  0  0  0  0  0  0
  128.5223  135.0460  160.9598 H   0  0  0  0  0  0  0  0  0  0  0  0
  131.3314  135.0294  158.8143 H   0  0  0  0  0  0  0  0  0  0  0  0
  130.0909  136.5668  160.8799 H   0  0  0  0  0  0  0  0  0  0  0  0
  129.8451  134.7849  162.4078 H   0  0  0  0  0  0  0  0  0  0  0  0
  131.0758  133.7831  161.5785 H   0  0  0  0  0  0  0  0  0  0  0  0
  131.9709  135.0107  163.9018 H   0  0  0  0  0  0  0  0  0  0  0  0
  133.8957  136.5384  163.9706 H   0  0  0  0  0  0  0  0  0  0  0  0
  134.7514  136.5967  162.4109 H   0  0  0  0  0  0  0  0  0  0  0  0
  133.6106  138.7183  161.8360 H   0  0  0  0  0  0  0  0  0  0  0  0
  135.0776  138.4583  164.4798 H   0  0  0  0  0  0  0  0  0  0  0  0
  135.4756  139.4819  163.0658 H   0  0  0  0  0  0  0  0  0  0  0  0
  134.4006  141.1343  164.7733 H   0  0  0  0  0  0  0  0  0  0  0  0
  131.9022  140.7740  164.6546 H   0  0  0  0  0  0  0  0  0  0  0  0
  131.5005  138.9090  162.8760 H   0  0  0  0  0  0  0  0  0  0  0  0
  132.0360  138.0191  164.3333 H   0  0  0  0  0  0  0  0  0  0  0  0
  132.9351  135.7865  160.1664 H   0  0  0  0  0  0  0  0  0  0  0  0
  132.2751  137.4031  160.5622 H   0  0  0  0  0  0  0  0  0  0  0  0
  131.0899  133.9683  157.1550 H   0  0  0  0  0  0  0  0  0  0  0  0
  131.0326  132.4344  159.3416 H   0  0  0  0  0  0  0  0  0  0  0  0
  131.6758  130.3305  158.6462 H   0  0  0  0  0  0  0  0  0  0  0  0
  132.0380  129.9636  156.2239 H   0  0  0  0  0  0  0  0  0  0  0  0
  130.2747  129.8426  156.4242 H   0  0  0  0  0  0  0  0  0  0  0  0
  131.8703  132.2564  155.4717 H   0  0  0  0  0  0  0  0  0  0  0  0
  130.6611  131.3177  154.5561 H   0  0  0  0  0  0  0  0  0  0  0  0
  128.9424  131.9842  156.2994 H   0  0  0  0  0  0  0  0  0  0  0  0
  129.5890  133.3609  155.3678 H   0  0  0  0  0  0  0  0  0  0  0  0
  1  2  2  0
  2  6  1  0
  2  3  1  0
  3  4  1  0
  4  5  1  0
  4 30  1  0
  4 31  1  0
  5  6  1  0
  5 32  1  0
  5 33  1  0
  6  7  1  6
  6  8  1  0
  8 34  1  0
  9  8  1  0
  9 10  1  0
  9 22  2  0
 10 11  1  0
 10 35  1  0
 11 21  1  0
 11 12  1  0
 11 36  1  1
 12 13  1  0
 12 37  1  0
 12 38  1  0
 13 14  2  0
 13 39  1  0
 14 15  1  0
 14 21  1  0
 15 16  1  0
 15 40  1  0
 15 41  1  0
 16 20  1  0
 16 17  1  0
 16 42  1  0
 17 18  1  0
 17 43  1  0
 17 44  1  0
 18 19  2  0
 18 45  1  0
 19 20  1  0
 19 46  1  0
 20 47  1  0
 20 48  1  0
 21 49  1  0
 21 50  1  0
 22 23  1  0
 22 24  1  0
 24 29  1  0
 24 25  1  0
 24 51  1  6
 25 26  2  0
 25 52  1  0
 26 27  1  0
 26 53  1  0
 27 28  1  0
 27 54  1  0
 27 55  1  0
 28 29  1  0
 28 56  1  0
 28 57  1  0
 29 58  1  0
 29 59  1  0
M  CHG  1  22   1
M  END
>  <DOCK_score>  (1) 
-44.908611

>  <SMILES>  (1) 
O=C1SCC[C@@H]1NC(NC1CC=C(CC2CC=CC2)C1)=[NH+]C1C=CCCC1

$$$$
