Fc1ccc([C@@H](Nc2[nH]cc(NCCc3cncc4ccccc34)[nH+]2)c2ccccc2)cc1
     RDKit          3D

 58 62  0  0  1  0  0  0  0  0999 V2000
  124.3740  131.3709  160.7322 F   0  0  0  0  0  0  0  0  0  0  0  0
  125.5974  131.8411  160.4041 C   0  0  0  0  0  0  0  0  0  0  0  0
  126.5368  130.9944  159.8405 C   0  0  0  0  0  0  0  0  0  0  0  0
  127.7879  131.4762  159.5058 C   0  0  0  0  0  0  0  0  0  0  0  0
  128.1016  132.8033  159.7329 C   0  0  0  0  0  0  0  0  0  0  0  0
  129.4662  133.3277  159.3669 C   0  0  1  0  0  0  0  0  0  0  0  0
  129.3923  134.3839  159.1081 H   0  0  0  0  0  0  0  0  0  0  0  0
  130.3730  133.1665  160.5062 N   0  0  0  0  0  0  0  0  0  0  0  0
  131.4167  134.0574  160.6919 C   0  0  0  0  0  0  0  0  0  0  0  0
  132.3196  134.0210  161.7074 N   0  0  0  0  0  0  0  0  0  0  0  0
  132.3512  133.3729  162.4286 H   0  0  0  0  0  0  0  0  0  0  0  0
  133.1865  135.0817  161.5157 C   0  0  0  0  0  0  0  0  0  0  0  0
  132.7752  135.7247  160.4030 C   0  0  0  0  0  0  0  0  0  0  0  0
  133.3705  136.8676  159.8452 N   0  0  0  0  0  0  0  0  0  0  0  0
  134.2372  137.7169  160.6660 C   0  0  0  0  0  0  0  0  0  0  0  0
  134.1521  139.1620  160.1712 C   0  0  0  0  0  0  0  0  0  0  0  0
  132.7289  139.6463  160.2765 C   0  0  0  0  0  0  0  0  0  0  0  0
  131.8632  139.4900  159.2366 C   0  0  0  0  0  0  0  0  0  0  0  0
  130.6050  139.9024  159.3051 N   0  0  0  0  0  0  0  0  0  0  0  0
  130.1083  140.4954  160.3658 C   0  0  0  0  0  0  0  0  0  0  0  0
  130.9194  140.7099  161.4914 C   0  0  0  0  0  0  0  0  0  0  0  0
  130.4365  141.3399  162.6493 C   0  0  0  0  0  0  0  0  0  0  0  0
  131.2692  141.5214  163.7112 C   0  0  0  0  0  0  0  0  0  0  0  0
  132.5947  141.0927  163.6678 C   0  0  0  0  0  0  0  0  0  0  0  0
  133.0980  140.4782  162.5613 C   0  0  0  0  0  0  0  0  0  0  0  0
  132.2696  140.2738  161.4485 C   0  0  0  0  0  0  0  0  0  0  0  0
  131.6962  135.0818  159.9202 N   0  0  0  0  0  0  0  0  0  0  0  0
  131.2015  135.3359  159.1254 H   0  0  0  0  0  0  0  0  0  0  0  0
  130.0005  132.5575  158.1868 C   0  0  0  0  0  0  0  0  0  0  0  0
  129.7372  132.9921  156.9013 C   0  0  0  0  0  0  0  0  0  0  0  0
  130.2213  132.2819  155.8187 C   0  0  0  0  0  0  0  0  0  0  0  0
  130.9707  131.1381  156.0218 C   0  0  0  0  0  0  0  0  0  0  0  0
  131.2344  130.7037  157.3074 C   0  0  0  0  0  0  0  0  0  0  0  0
  130.7491  131.4133  158.3898 C   0  0  0  0  0  0  0  0  0  0  0  0
  127.1665  133.6484  160.3007 C   0  0  0  0  0  0  0  0  0  0  0  0
  125.9128  133.1699  160.6316 C   0  0  0  0  0  0  0  0  0  0  0  0
  126.2919  129.9575  159.6631 H   0  0  0  0  0  0  0  0  0  0  0  0
  128.5209  130.8159  159.0662 H   0  0  0  0  0  0  0  0  0  0  0  0
  130.2423  132.4356  161.1305 H   0  0  0  0  0  0  0  0  0  0  0  0
  134.0277  135.3467  162.1391 H   0  0  0  0  0  0  0  0  0  0  0  0
  133.2078  137.0949  158.9164 H   0  0  0  0  0  0  0  0  0  0  0  0
  133.9133  137.6692  161.7059 H   0  0  0  0  0  0  0  0  0  0  0  0
  135.2666  137.3668  160.5898 H   0  0  0  0  0  0  0  0  0  0  0  0
  134.7970  139.7939  160.7818 H   0  0  0  0  0  0  0  0  0  0  0  0
  134.4761  139.2097  159.1314 H   0  0  0  0  0  0  0  0  0  0  0  0
  132.2103  139.0130  158.3321 H   0  0  0  0  0  0  0  0  0  0  0  0
  129.0774  140.8173  160.3726 H   0  0  0  0  0  0  0  0  0  0  0  0
  129.4117  141.6774  162.6977 H   0  0  0  0  0  0  0  0  0  0  0  0
  130.8965  142.0058  164.6016 H   0  0  0  0  0  0  0  0  0  0  0  0
  133.2328  141.2505  164.5249 H   0  0  0  0  0  0  0  0  0  0  0  0
  134.1272  140.1513  162.5410 H   0  0  0  0  0  0  0  0  0  0  0  0
  129.1524  133.8862  156.7426 H   0  0  0  0  0  0  0  0  0  0  0  0
  130.0159  132.6216  154.8143 H   0  0  0  0  0  0  0  0  0  0  0  0
  131.3504  130.5841  155.1761 H   0  0  0  0  0  0  0  0  0  0  0  0
  131.8199  129.8101  157.4659 H   0  0  0  0  0  0  0  0  0  0  0  0
  130.9551  131.0740  159.3943 H   0  0  0  0  0  0  0  0  0  0  0  0
  127.4142  134.6838  160.4821 H   0  0  0  0  0  0  0  0  0  0  0  0
  125.1809  133.8312  161.0714 H   0  0  0  0  0  0  0  0  0  0  0  0
  1  2  1  0
  2 36  2  0
  2  3  1  0
  3  4  2  0
  3 37  1  0
  4  5  1  0
  4 38  1  0
  5  6  1  0
  5 35  2  0
  6  7  1  6
  6  8  1  0
  6 29  1  0
  8 39  1  0
  9  8  1  0
  9 27  2  0
  9 10  1  0
 10 11  1  0
 10 12  1  0
 12 13  2  0
 12 40  1  0
 13 14  1  0
 13 27  1  0
 14 15  1  0
 14 41  1  0
 15 16  1  0
 15 42  1  0
 15 43  1  0
 16 17  1  0
 16 44  1  0
 16 45  1  0
 17 26  1  0
 17 18  2  0
 18 19  1  0
 18 46  1  0
 19 20  2  0
 20 21  1  0
 20 47  1  0
 21 26  2  0
 21 22  1  0
 22 23  2  0
 22 48  1  0
 23 24  1  0
 23 49  1  0
 24 25  2  0
 24 50  1  0
 25 26  1  0
 25 51  1  0
 27 28  1  0
 29 34  1  0
 29 30  2  0
 30 31  1  0
 30 52  1  0
 31 32  2  0
 31 53  1  0
 32 33  1  0
 32 54  1  0
 33 34  2  0
 33 55  1  0
 34 56  1  0
 35 36  1  0
 35 57  1  0
 36 58  1  0
M  CHG  1  27   1
M  END
>  <DOCK_score>  (1) 
-56.075924

>  <SMILES>  (1) 
Fc1ccc([C@@H](Nc2[nH]cc(NCCc3cncc4ccccc34)[nH+]2)c2ccccc2)cc1

$$$$
