CCOC(=O)c1oc2ccc(CC)cc2c1C[NH2+][C@H]1COC2(CCC2)C1
     RDKit          3D

 54 57  0  0  1  0  0  0  0  0999 V2000
  126.2064  133.9971  161.7380 C   0  0  0  0  0  0  0  0  0  0  0  0
  126.1241  135.0359  160.6176 C   0  0  0  0  0  0  0  0  0  0  0  0
  127.4286  135.6433  160.4241 O   0  0  0  0  0  0  0  0  0  0  0  0
  127.7036  136.7471  161.1486 C   0  0  0  0  0  0  0  0  0  0  0  0
  126.8754  137.1892  161.9208 O   0  0  0  0  0  0  0  0  0  0  0  0
  129.0032  137.4146  161.0046 C   0  0  0  0  0  0  0  0  0  0  0  0
  129.2209  138.7357  161.1732 O   0  0  0  0  0  0  0  0  0  0  0  0
  130.5183  139.0378  160.9720 C   0  0  0  0  0  0  0  0  0  0  0  0
  131.2381  140.2260  161.0224 C   0  0  0  0  0  0  0  0  0  0  0  0
  132.5911  140.2199  160.7610 C   0  0  0  0  0  0  0  0  0  0  0  0
  133.2482  139.0378  160.4469 C   0  0  0  0  0  0  0  0  0  0  0  0
  134.7285  139.0563  160.1658 C   0  0  0  0  0  0  0  0  0  0  0  0
  135.4980  138.8403  161.4705 C   0  0  0  0  0  0  0  0  0  0  0  0
  132.5616  137.8580  160.3914 C   0  0  0  0  0  0  0  0  0  0  0  0
  131.1891  137.8425  160.6526 C   0  0  0  0  0  0  0  0  0  0  0  0
  130.1690  136.7953  160.6819 C   0  0  0  0  0  0  0  0  0  0  0  0
  130.3709  135.3260  160.4146 C   0  0  0  0  0  0  0  0  0  0  0  0
  130.1751  135.0571  158.9837 N   0  0  0  0  0  0  0  0  0  0  0  0
  129.2387  135.3220  158.7169 H   0  0  0  0  0  0  0  0  0  0  0  0
  130.8418  135.5913  158.4469 H   0  0  0  0  0  0  0  0  0  0  0  0
  130.3717  133.6248  158.7233 C   0  0  1  0  0  0  0  0  0  0  0  0
  131.2091  133.2434  159.3078 H   0  0  0  0  0  0  0  0  0  0  0  0
  129.0863  132.8367  159.0452 C   0  0  0  0  0  0  0  0  0  0  0  0
  128.6248  132.2443  157.8168 O   0  0  0  0  0  0  0  0  0  0  0  0
  129.7670  132.1079  156.9657 C   0  0  0  0  0  0  0  0  0  0  0  0
  129.4819  131.7803  155.5023 C   0  0  0  0  0  0  0  0  0  0  0  0
  130.7453  130.9009  155.5444 C   0  0  0  0  0  0  0  0  0  0  0  0
  130.5270  130.7877  157.0646 C   0  0  0  0  0  0  0  0  0  0  0  0
  130.6041  133.3756  157.2113 C   0  0  0  0  0  0  0  0  0  0  0  0
  125.2271  133.5411  161.8832 H   0  0  0  0  0  0  0  0  0  0  0  0
  126.9291  133.2273  161.4673 H   0  0  0  0  0  0  0  0  0  0  0  0
  126.5215  134.4828  162.6615 H   0  0  0  0  0  0  0  0  0  0  0  0
  125.4014  135.8056  160.8882 H   0  0  0  0  0  0  0  0  0  0  0  0
  125.8089  134.5500  159.6942 H   0  0  0  0  0  0  0  0  0  0  0  0
  130.7382  141.1519  161.2656 H   0  0  0  0  0  0  0  0  0  0  0  0
  133.1468  141.1452  160.8012 H   0  0  0  0  0  0  0  0  0  0  0  0
  134.9748  138.2606  159.4628 H   0  0  0  0  0  0  0  0  0  0  0  0
  135.0049  140.0191  159.7362 H   0  0  0  0  0  0  0  0  0  0  0  0
  135.2518  139.6360  162.1736 H   0  0  0  0  0  0  0  0  0  0  0  0
  135.2217  137.8774  161.9002 H   0  0  0  0  0  0  0  0  0  0  0  0
  136.5688  138.8535  161.2673 H   0  0  0  0  0  0  0  0  0  0  0  0
  133.0774  136.9413  160.1466 H   0  0  0  0  0  0  0  0  0  0  0  0
  131.3825  135.0399  160.7030 H   0  0  0  0  0  0  0  0  0  0  0  0
  129.6508  134.7489  160.9946 H   0  0  0  0  0  0  0  0  0  0  0  0
  129.3035  132.0559  159.7741 H   0  0  0  0  0  0  0  0  0  0  0  0
  128.3267  133.5121  159.4389 H   0  0  0  0  0  0  0  0  0  0  0  0
  128.5612  131.2167  155.3514 H   0  0  0  0  0  0  0  0  0  0  0  0
  129.5685  132.6392  154.8368 H   0  0  0  0  0  0  0  0  0  0  0  0
  131.6567  131.4338  155.2732 H   0  0  0  0  0  0  0  0  0  0  0  0
  130.6350  129.9538  155.0164 H   0  0  0  0  0  0  0  0  0  0  0  0
  131.4471  130.8550  157.6450 H   0  0  0  0  0  0  0  0  0  0  0  0
  129.9021  129.9438  157.3568 H   0  0  0  0  0  0  0  0  0  0  0  0
  130.2312  134.2099  156.6171 H   0  0  0  0  0  0  0  0  0  0  0  0
  131.6585  133.1923  157.0041 H   0  0  0  0  0  0  0  0  0  0  0  0
  1  2  1  0
  1 30  1  0
  1 31  1  0
  1 32  1  0
  2  3  1  0
  2 33  1  0
  2 34  1  0
  3  4  1  0
  4  5  2  0
  4  6  1  0
  6 16  2  0
  6  7  1  0
  7  8  1  0
  8 15  2  0
  8  9  1  0
  9 10  2  0
  9 35  1  0
 10 11  1  0
 10 36  1  0
 11 12  1  0
 11 14  2  0
 12 13  1  0
 12 37  1  0
 12 38  1  0
 13 39  1  0
 13 40  1  0
 13 41  1  0
 14 15  1  0
 14 42  1  0
 15 16  1  0
 16 17  1  0
 17 18  1  0
 17 43  1  0
 17 44  1  0
 18 19  1  0
 18 20  1  0
 18 21  1  0
 21 22  1  1
 21 29  1  0
 21 23  1  0
 23 24  1  0
 23 45  1  0
 23 46  1  0
 24 25  1  0
 25 28  1  0
 25 26  1  0
 25 29  1  0
 26 27  1  0
 26 47  1  0
 26 48  1  0
 27 28  1  0
 27 49  1  0
 27 50  1  0
 28 51  1  0
 28 52  1  0
 29 53  1  0
 29 54  1  0
M  CHG  1  18   1
M  END
>  <DOCK_score>  (1) 
-41.511082

>  <SMILES>  (1) 
CCOC(=O)c1oc2ccc(CC)cc2c1C[NH2+][C@H]1COC2(CCC2)C1

$$$$
