OC[C@@H](Cc1ccccc1)Nc1[nH]cc(C2(O)c3cc(O)ccc3-c3ccc(O)cc32)[nH+]1
     RDKit          3D

 56 60  0  0  1  0  0  0  0  0999 V2000
  131.7886  135.1129  164.5423 O   0  0  0  0  0  0  0  0  0  0  0  0
  132.4690  136.3692  164.5264 C   0  0  0  0  0  0  0  0  0  0  0  0
  131.7276  137.3392  163.6044 C   0  0  1  0  0  0  0  0  0  0  0  0
  130.7105  137.4816  163.9693 H   0  0  0  0  0  0  0  0  0  0  0  0
  132.4564  138.6845  163.5873 C   0  0  0  0  0  0  0  0  0  0  0  0
  131.7261  139.6399  162.6791 C   0  0  0  0  0  0  0  0  0  0  0  0
  132.0590  139.7108  161.3393 C   0  0  0  0  0  0  0  0  0  0  0  0
  131.3859  140.5837  160.5052 C   0  0  0  0  0  0  0  0  0  0  0  0
  130.3871  141.3933  161.0129 C   0  0  0  0  0  0  0  0  0  0  0  0
  130.0578  141.3262  162.3538 C   0  0  0  0  0  0  0  0  0  0  0  0
  130.7272  140.4496  163.1869 C   0  0  0  0  0  0  0  0  0  0  0  0
  131.6871  136.7887  162.2474 N   0  0  0  0  0  0  0  0  0  0  0  0
  130.6327  135.9785  161.8600 C   0  0  0  0  0  0  0  0  0  0  0  0
  129.9120  135.1653  162.6782 N   0  0  0  0  0  0  0  0  0  0  0  0
  130.0402  135.0468  163.6324 H   0  0  0  0  0  0  0  0  0  0  0  0
  128.9660  134.5426  161.8957 C   0  0  0  0  0  0  0  0  0  0  0  0
  129.1387  134.9912  160.6409 C   0  0  0  0  0  0  0  0  0  0  0  0
  128.3264  134.5842  159.4386 C   0  0  0  0  0  0  0  0  0  0  0  0
  128.2367  135.6711  158.5151 O   0  0  0  0  0  0  0  0  0  0  0  0
  126.9457  134.1509  159.8668 C   0  0  0  0  0  0  0  0  0  0  0  0
  125.9282  134.8129  160.5165 C   0  0  0  0  0  0  0  0  0  0  0  0
  124.7357  134.1566  160.7908 C   0  0  0  0  0  0  0  0  0  0  0  0
  123.7314  134.8109  161.4309 O   0  0  0  0  0  0  0  0  0  0  0  0
  124.5697  132.8316  160.4105 C   0  0  0  0  0  0  0  0  0  0  0  0
  125.5855  132.1644  159.7607 C   0  0  0  0  0  0  0  0  0  0  0  0
  126.7870  132.8204  159.4825 C   0  0  0  0  0  0  0  0  0  0  0  0
  128.0219  132.3499  158.8076 C   0  0  0  0  0  0  0  0  0  0  0  0
  128.3495  131.1113  158.2512 C   0  0  0  0  0  0  0  0  0  0  0  0
  129.5847  130.9209  157.6705 C   0  0  0  0  0  0  0  0  0  0  0  0
  130.5079  131.9575  157.6368 C   0  0  0  0  0  0  0  0  0  0  0  0
  131.7248  131.7656  157.0633 O   0  0  0  0  0  0  0  0  0  0  0  0
  130.1870  133.1904  158.1891 C   0  0  0  0  0  0  0  0  0  0  0  0
  128.9528  133.3848  158.7702 C   0  0  0  0  0  0  0  0  0  0  0  0
  130.1559  135.8696  160.6426 N   0  0  0  0  0  0  0  0  0  0  0  0
  130.4871  136.3461  159.8654 H   0  0  0  0  0  0  0  0  0  0  0  0
  132.2042  134.4476  165.1078 H   0  0  0  0  0  0  0  0  0  0  0  0
  133.4863  136.2269  164.1616 H   0  0  0  0  0  0  0  0  0  0  0  0
  132.4993  136.7789  165.5361 H   0  0  0  0  0  0  0  0  0  0  0  0
  132.4865  139.0943  164.5970 H   0  0  0  0  0  0  0  0  0  0  0  0
  133.4735  138.5421  163.2227 H   0  0  0  0  0  0  0  0  0  0  0  0
  132.8424  139.0815  160.9435 H   0  0  0  0  0  0  0  0  0  0  0  0
  131.6435  140.6364  159.4575 H   0  0  0  0  0  0  0  0  0  0  0  0
  129.8643  142.0784  160.3621 H   0  0  0  0  0  0  0  0  0  0  0  0
  129.2777  141.9589  162.7505 H   0  0  0  0  0  0  0  0  0  0  0  0
  130.4704  140.3973  164.2346 H   0  0  0  0  0  0  0  0  0  0  0  0
  132.3987  136.9915  161.6201 H   0  0  0  0  0  0  0  0  0  0  0  0
  128.2262  133.8289  162.2271 H   0  0  0  0  0  0  0  0  0  0  0  0
  129.0912  135.9704  158.1757 H   0  0  0  0  0  0  0  0  0  0  0  0
  126.0578  135.8435  160.8125 H   0  0  0  0  0  0  0  0  0  0  0  0
  123.9398  135.7283  161.6549 H   0  0  0  0  0  0  0  0  0  0  0  0
  123.6416  132.3224  160.6242 H   0  0  0  0  0  0  0  0  0  0  0  0
  125.4525  131.1339  159.4662 H   0  0  0  0  0  0  0  0  0  0  0  0
  127.6343  130.3024  158.2757 H   0  0  0  0  0  0  0  0  0  0  0  0
  129.8356  129.9624  157.2407 H   0  0  0  0  0  0  0  0  0  0  0  0
  132.2983  132.5438  157.0879 H   0  0  0  0  0  0  0  0  0  0  0  0
  130.9047  133.9971  158.1628 H   0  0  0  0  0  0  0  0  0  0  0  0
  1  2  1  0
  1 36  1  0
  2  3  1  0
  2 37  1  0
  2 38  1  0
  3  4  1  1
  3  5  1  0
  3 12  1  0
  5  6  1  0
  5 39  1  0
  5 40  1  0
  6 11  1  0
  6  7  2  0
  7  8  1  0
  7 41  1  0
  8  9  2  0
  8 42  1  0
  9 10  1  0
  9 43  1  0
 10 11  2  0
 10 44  1  0
 11 45  1  0
 12 46  1  0
 13 12  1  0
 13 34  2  0
 13 14  1  0
 14 15  1  0
 14 16  1  0
 16 17  2  0
 16 47  1  0
 17 18  1  0
 17 34  1  0
 18 33  1  0
 18 19  1  0
 18 20  1  0
 19 48  1  0
 20 26  1  0
 20 21  2  0
 21 22  1  0
 21 49  1  0
 22 23  1  0
 22 24  2  0
 23 50  1  0
 24 25  1  0
 24 51  1  0
 25 26  2  0
 25 52  1  0
 26 27  1  0
 27 33  2  0
 27 28  1  0
 28 29  2  0
 28 53  1  0
 29 30  1  0
 29 54  1  0
 30 31  1  0
 30 32  2  0
 31 55  1  0
 32 33  1  0
 32 56  1  0
 34 35  1  0
M  CHG  1  34   1
M  END
>  <DOCK_score>  (1) 
-41.188488

>  <SMILES>  (1) 
OC[C@@H](Cc1ccccc1)Nc1[nH]cc(C2(O)c3cc(O)ccc3-c3ccc(O)cc32)[nH+]1

$$$$
