O=C1CC[C@H](NC(NC2CCCCC2)=[NH+]CCCOC2CCCC=C2Br)CN1
     RDKit          3D

 64 66  0  0  1  0  0  0  0  0999 V2000
  123.7923  134.2106  161.5497 O   0  0  0  0  0  0  0  0  0  0  0  0
  124.9835  134.3769  161.3940 C   0  0  0  0  0  0  0  0  0  0  0  0
  125.8146  133.2029  160.9624 C   0  0  0  0  0  0  0  0  0  0  0  0
  127.2937  133.4811  161.2417 C   0  0  0  0  0  0  0  0  0  0  0  0
  127.6389  134.8687  160.6877 C   0  0  2  0  0  0  0  0  0  0  0  0
  127.3278  134.9339  159.6451 H   0  0  0  0  0  0  0  0  0  0  0  0
  129.0838  135.0911  160.7844 N   0  0  0  0  0  0  0  0  0  0  0  0
  129.9064  134.7264  159.7450 C   0  0  0  0  0  0  0  0  0  0  0  0
  129.3732  134.1531  158.6150 N   0  0  0  0  0  0  0  0  0  0  0  0
  130.1655  133.2004  157.8333 C   0  0  0  0  0  0  0  0  0  0  0  0
  129.3449  132.7157  156.6364 C   0  0  0  0  0  0  0  0  0  0  0  0
  130.1724  131.7209  155.8199 C   0  0  0  0  0  0  0  0  0  0  0  0
  130.5465  130.5261  156.6994 C   0  0  0  0  0  0  0  0  0  0  0  0
  131.3671  131.0108  157.8962 C   0  0  0  0  0  0  0  0  0  0  0  0
  130.5396  132.0055  158.7126 C   0  0  0  0  0  0  0  0  0  0  0  0
  131.1918  134.9241  159.8310 N   0  0  0  0  0  0  0  0  0  0  0  0
  131.7722  134.6668  159.0976 H   0  0  0  0  0  0  0  0  0  0  0  0
  131.7601  135.5351  161.0352 C   0  0  0  0  0  0  0  0  0  0  0  0
  133.2775  135.6533  160.8796 C   0  0  0  0  0  0  0  0  0  0  0  0
  133.8711  136.2913  162.1371 C   0  0  0  0  0  0  0  0  0  0  0  0
  133.3086  137.5918  162.3223 O   0  0  0  0  0  0  0  0  0  0  0  0
  133.7986  138.2782  163.4758 C   0  0  1  0  0  0  0  0  0  0  0  0
  135.1732  138.8747  163.1655 C   0  0  0  0  0  0  0  0  0  0  0  0
  135.5637  139.8165  164.3115 C   0  0  0  0  0  0  0  0  0  0  0  0
  134.6196  141.0205  164.2919 C   0  0  0  0  0  0  0  0  0  0  0  0
  133.1940  140.5586  164.2128 C   0  0  0  0  0  0  0  0  0  0  0  0
  132.8365  139.3661  163.8536 C   0  0  0  0  0  0  0  0  0  0  0  0
  130.9876  138.9720  163.8028 Br  0  0  0  0  0  0  0  0  0  0  0  0
  126.9012  135.9232  161.5137 C   0  0  0  0  0  0  0  0  0  0  0  0
  125.4853  135.5923  161.6158 N   0  0  0  0  0  0  0  0  0  0  0  0
  125.6736  133.0323  159.8952 H   0  0  0  0  0  0  0  0  0  0  0  0
  125.5026  132.3161  161.5140 H   0  0  0  0  0  0  0  0  0  0  0  0
  127.9082  132.7266  160.7506 H   0  0  0  0  0  0  0  0  0  0  0  0
  127.4746  133.4596  162.3164 H   0  0  0  0  0  0  0  0  0  0  0  0
  129.4599  135.4957  161.5817 H   0  0  0  0  0  0  0  0  0  0  0  0
  128.4724  134.3792  158.3352 H   0  0  0  0  0  0  0  0  0  0  0  0
  131.0732  133.6883  157.4778 H   0  0  0  0  0  0  0  0  0  0  0  0
  128.4373  132.2278  156.9918 H   0  0  0  0  0  0  0  0  0  0  0  0
  129.0784  133.5669  156.0099 H   0  0  0  0  0  0  0  0  0  0  0  0
  131.0800  132.2086  155.4646 H   0  0  0  0  0  0  0  0  0  0  0  0
  129.5878  131.3754  154.9673 H   0  0  0  0  0  0  0  0  0  0  0  0
  131.1361  129.8173  156.1178 H   0  0  0  0  0  0  0  0  0  0  0  0
  129.6389  130.0381  157.0547 H   0  0  0  0  0  0  0  0  0  0  0  0
  132.2748  131.4987  157.5408 H   0  0  0  0  0  0  0  0  0  0  0  0
  131.6337  130.1595  158.5227 H   0  0  0  0  0  0  0  0  0  0  0  0
  131.1243  132.3509  159.5652 H   0  0  0  0  0  0  0  0  0  0  0  0
  129.6320  131.5178  159.0680 H   0  0  0  0  0  0  0  0  0  0  0  0
  131.5308  134.9136  161.9007 H   0  0  0  0  0  0  0  0  0  0  0  0
  131.3311  136.5271  161.1763 H   0  0  0  0  0  0  0  0  0  0  0  0
  133.5069  136.2746  160.0140 H   0  0  0  0  0  0  0  0  0  0  0  0
  133.7066  134.6611  160.7385 H   0  0  0  0  0  0  0  0  0  0  0  0
  134.9521  136.3754  162.0264 H   0  0  0  0  0  0  0  0  0  0  0  0
  133.6417  135.6697  163.0028 H   0  0  0  0  0  0  0  0  0  0  0  0
  133.8891  137.5729  164.3021 H   0  0  0  0  0  0  0  0  0  0  0  0
  135.9091  138.0750  163.0815 H   0  0  0  0  0  0  0  0  0  0  0  0
  135.1273  139.4340  162.2311 H   0  0  0  0  0  0  0  0  0  0  0  0
  135.4703  139.2936  165.2633 H   0  0  0  0  0  0  0  0  0  0  0  0
  136.5910  140.1539  164.1747 H   0  0  0  0  0  0  0  0  0  0  0  0
  134.8463  141.6429  163.4263 H   0  0  0  0  0  0  0  0  0  0  0  0
  134.7603  141.6049  165.2013 H   0  0  0  0  0  0  0  0  0  0  0  0
  132.4180  141.2636  164.4717 H   0  0  0  0  0  0  0  0  0  0  0  0
  127.3342  135.9658  162.5130 H   0  0  0  0  0  0  0  0  0  0  0  0
  127.0101  136.8965  161.0354 H   0  0  0  0  0  0  0  0  0  0  0  0
  124.8694  136.3006  161.8605 H   0  0  0  0  0  0  0  0  0  0  0  0
  1  2  2  0
  2 30  1  0
  2  3  1  0
  3  4  1  0
  3 31  1  0
  3 32  1  0
  4  5  1  0
  4 33  1  0
  4 34  1  0
  5  6  1  6
  5  7  1  0
  5 29  1  0
  7 35  1  0
  8  7  1  0
  8  9  1  0
  8 16  2  0
  9 10  1  0
  9 36  1  0
 10 15  1  0
 10 11  1  0
 10 37  1  0
 11 12  1  0
 11 38  1  0
 11 39  1  0
 12 13  1  0
 12 40  1  0
 12 41  1  0
 13 14  1  0
 13 42  1  0
 13 43  1  0
 14 15  1  0
 14 44  1  0
 14 45  1  0
 15 46  1  0
 15 47  1  0
 16 17  1  0
 16 18  1  0
 18 19  1  0
 18 48  1  0
 18 49  1  0
 19 20  1  0
 19 50  1  0
 19 51  1  0
 20 21  1  0
 20 52  1  0
 20 53  1  0
 21 22  1  0
 22 27  1  0
 22 23  1  0
 22 54  1  1
 23 24  1  0
 23 55  1  0
 23 56  1  0
 24 25  1  0
 24 57  1  0
 24 58  1  0
 25 26  1  0
 25 59  1  0
 25 60  1  0
 26 27  2  0
 26 61  1  0
 27 28  1  0
 29 30  1  0
 29 62  1  0
 29 63  1  0
 30 64  1  0
M  CHG  1  16   1
M  END
>  <DOCK_score>  (1) 
-45.138176

>  <SMILES>  (1) 
O=C1CC[C@H](NC(NC2CCCCC2)=[NH+]CCCOC2CCCC=C2Br)CN1

$$$$
