Nc1ccc(NC2C=CCC2)c(C[NH+]=C(NC2CC=CC2)N[C@H]2CC=CCC2)n1
     RDKit          3D

 62 65  0  0  1  0  0  0  0  0999 V2000
  126.4102  137.1682  162.6200 N   0  0  0  0  0  0  0  0  0  0  0  0
  127.7658  137.1379  162.3004 C   0  0  0  0  0  0  0  0  0  0  0  0
  128.7113  137.3854  163.2900 C   0  0  0  0  0  0  0  0  0  0  0  0
  130.0543  137.3525  162.9626 C   0  0  0  0  0  0  0  0  0  0  0  0
  130.4097  137.0650  161.6454 C   0  0  0  0  0  0  0  0  0  0  0  0
  131.7579  137.0152  161.2699 N   0  0  0  0  0  0  0  0  0  0  0  0
  132.7441  137.8436  161.9683 C   0  0  2  0  0  0  0  0  0  0  0  0
  132.4613  139.3091  161.7332 C   0  0  0  0  0  0  0  0  0  0  0  0
  133.2775  139.8086  160.8452 C   0  0  0  0  0  0  0  0  0  0  0  0
  134.2402  138.7594  160.3403 C   0  0  0  0  0  0  0  0  0  0  0  0
  134.1545  137.6156  161.3773 C   0  0  0  0  0  0  0  0  0  0  0  0
  129.4120  136.8340  160.7112 C   0  0  0  0  0  0  0  0  0  0  0  0
  129.7849  136.5283  159.2834 C   0  0  0  0  0  0  0  0  0  0  0  0
  129.9391  135.0809  159.1181 N   0  0  0  0  0  0  0  0  0  0  0  0
  130.7895  134.7135  158.8304 H   0  0  0  0  0  0  0  0  0  0  0  0
  128.9337  134.2867  159.3579 C   0  0  0  0  0  0  0  0  0  0  0  0
  127.7284  134.8074  159.7657 N   0  0  0  0  0  0  0  0  0  0  0  0
  126.5985  133.9149  160.0351 C   0  0  0  0  0  0  0  0  0  0  0  0
  125.2552  134.6747  159.9361 C   0  0  0  0  0  0  0  0  0  0  0  0
  124.3986  134.0837  161.0325 C   0  0  0  0  0  0  0  0  0  0  0  0
  125.1252  133.4233  161.8926 C   0  0  0  0  0  0  0  0  0  0  0  0
  126.5875  133.4641  161.5142 C   0  0  0  0  0  0  0  0  0  0  0  0
  129.0786  132.9284  159.2029 N   0  0  0  0  0  0  0  0  0  0  0  0
  130.0178  132.4005  158.2102 C   0  0  1  0  0  0  0  0  0  0  0  0
  131.0257  132.7464  158.4393 H   0  0  0  0  0  0  0  0  0  0  0  0
  129.9829  130.8708  158.2251 C   0  0  0  0  0  0  0  0  0  0  0  0
  130.7350  130.3251  157.0466 C   0  0  0  0  0  0  0  0  0  0  0  0
  131.0433  131.0196  156.0010 C   0  0  0  0  0  0  0  0  0  0  0  0
  130.7077  132.4714  155.8230 C   0  0  0  0  0  0  0  0  0  0  0  0
  129.6133  132.8814  156.8109 C   0  0  0  0  0  0  0  0  0  0  0  0
  128.1393  136.8735  161.0590 N   0  0  0  0  0  0  0  0  0  0  0  0
  125.7462  136.9962  161.9343 H   0  0  0  0  0  0  0  0  0  0  0  0
  126.1303  137.3614  163.5286 H   0  0  0  0  0  0  0  0  0  0  0  0
  128.4003  137.6010  164.3017 H   0  0  0  0  0  0  0  0  0  0  0  0
  130.8103  137.5408  163.7105 H   0  0  0  0  0  0  0  0  0  0  0  0
  132.0389  136.4323  160.5473 H   0  0  0  0  0  0  0  0  0  0  0  0
  132.7388  137.6205  163.0352 H   0  0  0  0  0  0  0  0  0  0  0  0
  131.6858  139.8698  162.2338 H   0  0  0  0  0  0  0  0  0  0  0  0
  133.2659  140.8368  160.5149 H   0  0  0  0  0  0  0  0  0  0  0  0
  135.2529  139.1609  160.3005 H   0  0  0  0  0  0  0  0  0  0  0  0
  133.9350  138.4036  159.3563 H   0  0  0  0  0  0  0  0  0  0  0  0
  134.9221  137.7237  162.1435 H   0  0  0  0  0  0  0  0  0  0  0  0
  134.2229  136.6417  160.8923 H   0  0  0  0  0  0  0  0  0  0  0  0
  130.7243  137.0241  159.0390 H   0  0  0  0  0  0  0  0  0  0  0  0
  129.0003  136.8883  158.6179 H   0  0  0  0  0  0  0  0  0  0  0  0
  127.6263  135.7658  159.8751 H   0  0  0  0  0  0  0  0  0  0  0  0
  126.6125  133.0560  159.3642 H   0  0  0  0  0  0  0  0  0  0  0  0
  125.4083  135.7403  160.1067 H   0  0  0  0  0  0  0  0  0  0  0  0
  124.7953  134.5074  158.9622 H   0  0  0  0  0  0  0  0  0  0  0  0
  123.3261  134.1934  161.0955 H   0  0  0  0  0  0  0  0  0  0  0  0
  124.7328  132.9149  162.7609 H   0  0  0  0  0  0  0  0  0  0  0  0
  127.0329  132.4741  161.6127 H   0  0  0  0  0  0  0  0  0  0  0  0
  127.1221  134.1835  162.1344 H   0  0  0  0  0  0  0  0  0  0  0  0
  128.5589  132.3195  159.7509 H   0  0  0  0  0  0  0  0  0  0  0  0
  130.4407  130.5079  159.1453 H   0  0  0  0  0  0  0  0  0  0  0  0
  128.9476  130.5324  158.1810 H   0  0  0  0  0  0  0  0  0  0  0  0
  131.0347  129.2878  157.0733 H   0  0  0  0  0  0  0  0  0  0  0  0
  131.5785  130.5224  155.2055 H   0  0  0  0  0  0  0  0  0  0  0  0
  130.3567  132.6389  154.8048 H   0  0  0  0  0  0  0  0  0  0  0  0
  131.5992  133.0727  156.0014 H   0  0  0  0  0  0  0  0  0  0  0  0
  129.5089  133.9664  156.8122 H   0  0  0  0  0  0  0  0  0  0  0  0
  128.6678  132.4227  156.5213 H   0  0  0  0  0  0  0  0  0  0  0  0
  1  2  1  0
  1 32  1  0
  1 33  1  0
  2 31  2  0
  2  3  1  0
  3  4  2  0
  3 34  1  0
  4  5  1  0
  4 35  1  0
  5  6  1  0
  5 12  2  0
  6  7  1  0
  6 36  1  0
  7 11  1  0
  7  8  1  0
  7 37  1  1
  8  9  2  0
  8 38  1  0
  9 10  1  0
  9 39  1  0
 10 11  1  0
 10 40  1  0
 10 41  1  0
 11 42  1  0
 11 43  1  0
 12 13  1  0
 12 31  1  0
 13 14  1  0
 13 44  1  0
 13 45  1  0
 14 15  1  0
 16 14  2  0
 16 17  1  0
 16 23  1  0
 17 18  1  0
 17 46  1  0
 18 22  1  0
 18 19  1  0
 18 47  1  0
 19 20  1  0
 19 48  1  0
 19 49  1  0
 20 21  2  0
 20 50  1  0
 21 22  1  0
 21 51  1  0
 22 52  1  0
 22 53  1  0
 23 24  1  0
 23 54  1  0
 24 25  1  1
 24 30  1  0
 24 26  1  0
 26 27  1  0
 26 55  1  0
 26 56  1  0
 27 28  2  0
 27 57  1  0
 28 29  1  0
 28 58  1  0
 29 30  1  0
 29 59  1  0
 29 60  1  0
 30 61  1  0
 30 62  1  0
M  CHG  1  14   1
M  END
>  <DOCK_score>  (1) 
-42.96067

>  <SMILES>  (1) 
Nc1ccc(NC2C=CCC2)c(C[NH+]=C(NC2CC=CC2)N[C@H]2CC=CCC2)n1

$$$$
