Cc1cccc([C@H](C)C[NH+]=C(NC2CCC=CCC2)N[C@@H]2C[C@H](O)C[C@H](O)C2)c1
     RDKit          3D

 67 69  0  0  1  0  0  0  0  0999 V2000
  137.1319  139.8591  160.6525 C   0  0  0  0  0  0  0  0  0  0  0  0
  135.6624  140.1572  160.8044 C   0  0  0  0  0  0  0  0  0  0  0  0
  135.2519  141.2531  161.5407 C   0  0  0  0  0  0  0  0  0  0  0  0
  133.9043  141.5267  161.6796 C   0  0  0  0  0  0  0  0  0  0  0  0
  132.9669  140.7076  161.0780 C   0  0  0  0  0  0  0  0  0  0  0  0
  133.3772  139.6090  160.3463 C   0  0  0  0  0  0  0  0  0  0  0  0
  132.3553  138.7132  159.6951 C   0  0  2  0  0  0  0  0  0  0  0  0
  132.8635  137.9067  159.1664 H   0  0  0  0  0  0  0  0  0  0  0  0
  131.5216  139.5271  158.7033 C   0  0  0  0  0  0  0  0  0  0  0  0
  131.4382  138.1217  160.7674 C   0  0  0  0  0  0  0  0  0  0  0  0
  130.7795  136.9240  160.2402 N   0  0  0  0  0  0  0  0  0  0  0  0
  130.9621  136.6291  159.3343 H   0  0  0  0  0  0  0  0  0  0  0  0
  129.9483  136.2547  160.9885 C   0  0  0  0  0  0  0  0  0  0  0  0
  129.3302  135.1307  160.4939 N   0  0  0  0  0  0  0  0  0  0  0  0
  130.0040  134.3076  159.4865 C   0  0  0  0  0  0  0  0  0  0  0  0
  129.0586  133.2018  159.0514 C   0  0  0  0  0  0  0  0  0  0  0  0
  129.6400  132.4265  157.8666 C   0  0  0  0  0  0  0  0  0  0  0  0
  130.5499  131.3406  158.4000 C   0  0  0  0  0  0  0  0  0  0  0  0
  131.6970  131.6442  158.9192 C   0  0  0  0  0  0  0  0  0  0  0  0
  132.1422  133.0888  158.9996 C   0  0  0  0  0  0  0  0  0  0  0  0
  131.3098  133.7977  160.0703 C   0  0  0  0  0  0  0  0  0  0  0  0
  129.6896  136.6728  162.2725 N   0  0  0  0  0  0  0  0  0  0  0  0
  128.7554  135.9205  163.1136 C   0  0  2  0  0  0  0  0  0  0  0  0
  128.7775  134.8682  162.8298 H   0  0  0  0  0  0  0  0  0  0  0  0
  127.3406  136.4706  162.9223 C   0  0  0  0  0  0  0  0  0  0  0  0
  126.3648  135.6850  163.8007 C   0  0  2  0  0  0  0  0  0  0  0  0
  126.3869  134.6327  163.5170 H   0  0  0  0  0  0  0  0  0  0  0  0
  125.0434  136.1988  163.6222 O   0  0  0  0  0  0  0  0  0  0  0  0
  126.7729  135.8260  165.2685 C   0  0  0  0  0  0  0  0  0  0  0  0
  128.1876  135.2758  165.4597 C   0  0  2  0  0  0  0  0  0  0  0  0
  128.2098  134.2237  165.1760 H   0  0  0  0  0  0  0  0  0  0  0  0
  128.5687  135.4076  166.8307 O   0  0  0  0  0  0  0  0  0  0  0  0
  129.1634  136.0615  164.5814 C   0  0  0  0  0  0  0  0  0  0  0  0
  134.7252  139.3353  160.2074 C   0  0  0  0  0  0  0  0  0  0  0  0
  137.5163  140.3681  159.7687 H   0  0  0  0  0  0  0  0  0  0  0  0
  137.6668  140.2095  161.5351 H   0  0  0  0  0  0  0  0  0  0  0  0
  137.2751  138.7840  160.5438 H   0  0  0  0  0  0  0  0  0  0  0  0
  135.9843  141.8954  162.0069 H   0  0  0  0  0  0  0  0  0  0  0  0
  133.5836  142.3831  162.2544 H   0  0  0  0  0  0  0  0  0  0  0  0
  131.9141  140.9239  161.1828 H   0  0  0  0  0  0  0  0  0  0  0  0
  130.7824  138.8792  158.2323 H   0  0  0  0  0  0  0  0  0  0  0  0
  131.0134  140.3337  159.2320 H   0  0  0  0  0  0  0  0  0  0  0  0
  132.1750  139.9485  157.9393 H   0  0  0  0  0  0  0  0  0  0  0  0
  130.6843  138.8577  161.0469 H   0  0  0  0  0  0  0  0  0  0  0  0
  132.0288  137.8556  161.6440 H   0  0  0  0  0  0  0  0  0  0  0  0
  128.4480  134.8827  160.8118 H   0  0  0  0  0  0  0  0  0  0  0  0
  130.2290  134.9316  158.6216 H   0  0  0  0  0  0  0  0  0  0  0  0
  128.8991  132.5176  159.8848 H   0  0  0  0  0  0  0  0  0  0  0  0
  128.1041  133.6398  158.7599 H   0  0  0  0  0  0  0  0  0  0  0  0
  130.2115  133.1031  157.2312 H   0  0  0  0  0  0  0  0  0  0  0  0
  128.8311  131.9760  157.2914 H   0  0  0  0  0  0  0  0  0  0  0  0
  130.2410  130.3071  158.3471 H   0  0  0  0  0  0  0  0  0  0  0  0
  132.3393  130.8625  159.2972 H   0  0  0  0  0  0  0  0  0  0  0  0
  131.9875  133.5735  158.0355 H   0  0  0  0  0  0  0  0  0  0  0  0
  133.1976  133.1320  159.2687 H   0  0  0  0  0  0  0  0  0  0  0  0
  131.8778  134.6387  160.4679 H   0  0  0  0  0  0  0  0  0  0  0  0
  131.0929  133.0982  160.8777 H   0  0  0  0  0  0  0  0  0  0  0  0
  130.1257  137.4658  162.6215 H   0  0  0  0  0  0  0  0  0  0  0  0
  127.3185  137.5229  163.2061 H   0  0  0  0  0  0  0  0  0  0  0  0
  127.0498  136.3701  161.8767 H   0  0  0  0  0  0  0  0  0  0  0  0
  124.7186  136.1416  162.7132 H   0  0  0  0  0  0  0  0  0  0  0  0
  126.0777  135.2662  165.8943 H   0  0  0  0  0  0  0  0  0  0  0  0
  126.7508  136.8783  165.5523 H   0  0  0  0  0  0  0  0  0  0  0  0
  128.5714  136.3194  167.1523 H   0  0  0  0  0  0  0  0  0  0  0  0
  129.1413  137.1137  164.8651 H   0  0  0  0  0  0  0  0  0  0  0  0
  130.1713  135.6696  164.7176 H   0  0  0  0  0  0  0  0  0  0  0  0
  135.0459  138.4794  159.6319 H   0  0  0  0  0  0  0  0  0  0  0  0
  1  2  1  0
  1 35  1  0
  1 36  1  0
  1 37  1  0
  2 34  2  0
  2  3  1  0
  3  4  2  0
  3 38  1  0
  4  5  1  0
  4 39  1  0
  5  6  2  0
  5 40  1  0
  6  7  1  0
  6 34  1  0
  7  8  1  6
  7  9  1  0
  7 10  1  0
  9 41  1  0
  9 42  1  0
  9 43  1  0
 10 11  1  0
 10 44  1  0
 10 45  1  0
 11 12  1  0
 13 11  2  0
 13 14  1  0
 13 22  1  0
 14 15  1  0
 14 46  1  0
 15 21  1  0
 15 16  1  0
 15 47  1  0
 16 17  1  0
 16 48  1  0
 16 49  1  0
 17 18  1  0
 17 50  1  0
 17 51  1  0
 18 19  2  0
 18 52  1  0
 19 20  1  0
 19 53  1  0
 20 21  1  0
 20 54  1  0
 20 55  1  0
 21 56  1  0
 21 57  1  0
 22 23  1  0
 22 58  1  0
 23 24  1  6
 23 33  1  0
 23 25  1  0
 25 26  1  0
 25 59  1  0
 25 60  1  0
 26 27  1  6
 26 28  1  0
 26 29  1  0
 28 61  1  0
 29 30  1  0
 29 62  1  0
 29 63  1  0
 30 31  1  6
 30 32  1  0
 30 33  1  0
 32 64  1  0
 33 65  1  0
 33 66  1  0
 34 67  1  0
M  CHG  1  11   1
M  END
>  <DOCK_score>  (1) 
-44.209862

>  <SMILES>  (1) 
Cc1cccc([C@H](C)C[NH+]=C(NC2CCC=CCC2)N[C@@H]2C[C@H](O)C[C@H](O)C2)c1

$$$$
