CC(F)(F)c1ccc(Nc2ccc(Nc3[nH]cc(CO)[nH+]3)cc2)cc1
     RDKit          3D

 44 46  0  0  1  0  0  0  0  0999 V2000
  128.6137  136.3964  167.9285 C   0  0  0  0  0  0  0  0  0  0  0  0
  127.4074  135.5323  167.5553 C   0  0  0  0  0  0  0  0  0  0  0  0
  126.3200  135.8743  168.3663 F   0  0  0  0  0  0  0  0  0  0  0  0
  127.7242  134.1828  167.7445 F   0  0  0  0  0  0  0  0  0  0  0  0
  127.0494  135.7660  166.1103 C   0  0  0  0  0  0  0  0  0  0  0  0
  127.6225  134.9862  165.1225 C   0  0  0  0  0  0  0  0  0  0  0  0
  127.2976  135.1986  163.7973 C   0  0  0  0  0  0  0  0  0  0  0  0
  126.3938  136.1973  163.4567 C   0  0  0  0  0  0  0  0  0  0  0  0
  126.0629  136.4150  162.1173 N   0  0  0  0  0  0  0  0  0  0  0  0
  126.9981  136.1430  161.1121 C   0  0  0  0  0  0  0  0  0  0  0  0
  126.7089  135.2040  160.1301 C   0  0  0  0  0  0  0  0  0  0  0  0
  127.6337  134.9317  159.1419 C   0  0  0  0  0  0  0  0  0  0  0  0
  128.8531  135.5964  159.1295 C   0  0  0  0  0  0  0  0  0  0  0  0
  129.7908  135.3204  158.1269 N   0  0  0  0  0  0  0  0  0  0  0  0
  129.8417  134.0599  157.5539 C   0  0  0  0  0  0  0  0  0  0  0  0
  129.5096  132.8924  158.1686 N   0  0  0  0  0  0  0  0  0  0  0  0
  129.1961  132.7895  159.0808 H   0  0  0  0  0  0  0  0  0  0  0  0
  129.7021  131.8852  157.2507 C   0  0  0  0  0  0  0  0  0  0  0  0
  130.1400  132.4643  156.1196 C   0  0  0  0  0  0  0  0  0  0  0  0
  130.4854  131.7493  154.8388 C   0  0  0  0  0  0  0  0  0  0  0  0
  130.9131  132.7011  153.8624 O   0  0  0  0  0  0  0  0  0  0  0  0
  130.2129  133.7901  156.3247 N   0  0  0  0  0  0  0  0  0  0  0  0
  130.4975  134.4447  155.6678 H   0  0  0  0  0  0  0  0  0  0  0  0
  129.1422  136.5354  160.1113 C   0  0  0  0  0  0  0  0  0  0  0  0
  128.2176  136.8078  161.0996 C   0  0  0  0  0  0  0  0  0  0  0  0
  125.8242  136.9829  164.4512 C   0  0  0  0  0  0  0  0  0  0  0  0
  126.1497  136.7615  165.7748 C   0  0  0  0  0  0  0  0  0  0  0  0
  128.3669  137.4479  167.7811 H   0  0  0  0  0  0  0  0  0  0  0  0
  128.8725  136.2270  168.9737 H   0  0  0  0  0  0  0  0  0  0  0  0
  129.4609  136.1299  167.2967 H   0  0  0  0  0  0  0  0  0  0  0  0
  128.3250  134.2100  165.3880 H   0  0  0  0  0  0  0  0  0  0  0  0
  127.7459  134.5894  163.0264 H   0  0  0  0  0  0  0  0  0  0  0  0
  125.1847  136.7546  161.8837 H   0  0  0  0  0  0  0  0  0  0  0  0
  125.7609  134.6868  160.1400 H   0  0  0  0  0  0  0  0  0  0  0  0
  127.4089  134.2015  158.3784 H   0  0  0  0  0  0  0  0  0  0  0  0
  130.4049  136.0116  157.8336 H   0  0  0  0  0  0  0  0  0  0  0  0
  129.5337  130.8302  157.4092 H   0  0  0  0  0  0  0  0  0  0  0  0
  131.2877  131.0356  155.0262 H   0  0  0  0  0  0  0  0  0  0  0  0
  129.6069  131.2200  154.4698 H   0  0  0  0  0  0  0  0  0  0  0  0
  131.6926  133.2101  154.1243 H   0  0  0  0  0  0  0  0  0  0  0  0
  130.0906  137.0520  160.1018 H   0  0  0  0  0  0  0  0  0  0  0  0
  128.4423  137.5381  161.8628 H   0  0  0  0  0  0  0  0  0  0  0  0
  125.1247  137.7631  164.1895 H   0  0  0  0  0  0  0  0  0  0  0  0
  125.7041  137.3690  166.5486 H   0  0  0  0  0  0  0  0  0  0  0  0
  1  2  1  0
  1 28  1  0
  1 29  1  0
  1 30  1  0
  2  3  1  0
  2  4  1  0
  2  5  1  0
  5 27  2  0
  5  6  1  0
  6  7  2  0
  6 31  1  0
  7  8  1  0
  7 32  1  0
  8  9  1  0
  8 26  2  0
  9 10  1  0
  9 33  1  0
 10 25  1  0
 10 11  2  0
 11 12  1  0
 11 34  1  0
 12 13  2  0
 12 35  1  0
 13 14  1  0
 13 24  1  0
 14 36  1  0
 15 14  1  0
 15 22  2  0
 15 16  1  0
 16 17  1  0
 16 18  1  0
 18 19  2  0
 18 37  1  0
 19 20  1  0
 19 22  1  0
 20 21  1  0
 20 38  1  0
 20 39  1  0
 21 40  1  0
 22 23  1  0
 24 25  2  0
 24 41  1  0
 25 42  1  0
 26 27  1  0
 26 43  1  0
 27 44  1  0
M  CHG  1  22   1
M  END
>  <DOCK_score>  (1) 
-50.154327

>  <SMILES>  (1) 
CC(F)(F)c1ccc(Nc2ccc(Nc3[nH]cc(CO)[nH+]3)cc2)cc1

$$$$
