C[C@@H](c1cnn(-c2ccccc2)c1)[NH+]1CC=C(c2cccc3ccccc23)CC1
     RDKit          3D

 55 59  0  0  1  0  0  0  0  0999 V2000
  128.5084  135.3593  159.3400 C   0  0  0  0  0  0  0  0  0  0  0  0
  129.8106  134.6494  159.7156 C   0  0  1  0  0  0  0  0  0  0  0  0
  129.7399  134.2774  160.7377 H   0  0  0  0  0  0  0  0  0  0  0  0
  130.0425  133.4946  158.7755 C   0  0  0  0  0  0  0  0  0  0  0  0
  130.1526  132.1477  159.1378 C   0  0  0  0  0  0  0  0  0  0  0  0
  130.3503  131.4459  158.0509 N   0  0  0  0  0  0  0  0  0  0  0  0
  130.3722  132.3247  156.9602 N   0  0  0  0  0  0  0  0  0  0  0  0
  130.5598  131.9684  155.6174 C   0  0  0  0  0  0  0  0  0  0  0  0
  130.5596  132.9464  154.6318 C   0  0  0  0  0  0  0  0  0  0  0  0
  130.7451  132.5923  153.3097 C   0  0  0  0  0  0  0  0  0  0  0  0
  130.9314  131.2656  152.9673 C   0  0  0  0  0  0  0  0  0  0  0  0
  130.9323  130.2895  153.9468 C   0  0  0  0  0  0  0  0  0  0  0  0
  130.7467  130.6372  155.2705 C   0  0  0  0  0  0  0  0  0  0  0  0
  130.1862  133.5780  157.4325 C   0  0  0  0  0  0  0  0  0  0  0  0
  130.9303  135.5950  159.6152 N   0  0  1  0  0  0  0  0  0  0  0  0
  131.2086  135.6875  158.6497 H   0  0  0  0  0  0  0  0  0  0  0  0
  130.5161  136.9036  160.1343 C   0  0  0  0  0  0  0  0  0  0  0  0
  131.6931  137.8326  160.2118 C   0  0  0  0  0  0  0  0  0  0  0  0
  132.9413  137.4102  160.1947 C   0  0  0  0  0  0  0  0  0  0  0  0
  134.0294  138.4022  160.2820 C   0  0  0  0  0  0  0  0  0  0  0  0
  134.9655  138.5069  159.2651 C   0  0  0  0  0  0  0  0  0  0  0  0
  135.9906  139.4421  159.3393 C   0  0  0  0  0  0  0  0  0  0  0  0
  136.1106  140.2732  160.4123 C   0  0  0  0  0  0  0  0  0  0  0  0
  135.1867  140.1987  161.4688 C   0  0  0  0  0  0  0  0  0  0  0  0
  135.2901  141.0445  162.5868 C   0  0  0  0  0  0  0  0  0  0  0  0
  134.3790  140.9448  163.5933 C   0  0  0  0  0  0  0  0  0  0  0  0
  133.3431  140.0152  163.5326 C   0  0  0  0  0  0  0  0  0  0  0  0
  133.2130  139.1802  162.4642 C   0  0  0  0  0  0  0  0  0  0  0  0
  134.1329  139.2545  161.4090 C   0  0  0  0  0  0  0  0  0  0  0  0
  133.2956  135.9523  160.0887 C   0  0  0  0  0  0  0  0  0  0  0  0
  132.0649  135.1011  160.4114 C   0  0  0  0  0  0  0  0  0  0  0  0
  127.6775  134.6577  159.4145 H   0  0  0  0  0  0  0  0  0  0  0  0
  128.3406  136.1945  160.0200 H   0  0  0  0  0  0  0  0  0  0  0  0
  128.5791  135.7314  158.3179 H   0  0  0  0  0  0  0  0  0  0  0  0
  130.0857  131.7547  160.1415 H   0  0  0  0  0  0  0  0  0  0  0  0
  130.4148  133.9828  154.8987 H   0  0  0  0  0  0  0  0  0  0  0  0
  130.7449  133.3525  152.5426 H   0  0  0  0  0  0  0  0  0  0  0  0
  131.0723  130.9908  151.9324 H   0  0  0  0  0  0  0  0  0  0  0  0
  131.0781  129.2542  153.6762 H   0  0  0  0  0  0  0  0  0  0  0  0
  130.7475  129.8743  156.0350 H   0  0  0  0  0  0  0  0  0  0  0  0
  130.1555  134.4828  156.8436 H   0  0  0  0  0  0  0  0  0  0  0  0
  129.7620  137.3314  159.4736 H   0  0  0  0  0  0  0  0  0  0  0  0
  130.0898  136.7781  161.1297 H   0  0  0  0  0  0  0  0  0  0  0  0
  131.5087  138.8942  160.2851 H   0  0  0  0  0  0  0  0  0  0  0  0
  134.8957  137.8572  158.4052 H   0  0  0  0  0  0  0  0  0  0  0  0
  136.7065  139.5094  158.5334 H   0  0  0  0  0  0  0  0  0  0  0  0
  136.9170  140.9906  160.4508 H   0  0  0  0  0  0  0  0  0  0  0  0
  136.0884  141.7694  162.6471 H   0  0  0  0  0  0  0  0  0  0  0  0
  134.4606  141.5954  164.4515 H   0  0  0  0  0  0  0  0  0  0  0  0
  132.6328  139.9561  164.3441 H   0  0  0  0  0  0  0  0  0  0  0  0
  132.4048  138.4646  162.4301 H   0  0  0  0  0  0  0  0  0  0  0  0
  133.6333  135.7334  159.0757 H   0  0  0  0  0  0  0  0  0  0  0  0
  134.0924  135.7200  160.7952 H   0  0  0  0  0  0  0  0  0  0  0  0
  131.8306  135.1840  161.4727 H   0  0  0  0  0  0  0  0  0  0  0  0
  132.2637  134.0597  160.1583 H   0  0  0  0  0  0  0  0  0  0  0  0
  1  2  1  0
  1 32  1  0
  1 33  1  0
  1 34  1  0
  2  3  1  1
  2  4  1  0
  2 15  1  0
  4 14  2  0
  4  5  1  0
  5  6  2  0
  5 35  1  0
  6  7  1  0
  7  8  1  0
  7 14  1  0
  8 13  1  0
  8  9  2  0
  9 10  1  0
  9 36  1  0
 10 11  2  0
 10 37  1  0
 11 12  1  0
 11 38  1  0
 12 13  2  0
 12 39  1  0
 13 40  1  0
 14 41  1  0
 15 16  1  6
 15 31  1  0
 15 17  1  0
 17 18  1  0
 17 42  1  0
 17 43  1  0
 18 19  2  0
 18 44  1  0
 19 20  1  0
 19 30  1  0
 20 29  1  0
 20 21  2  0
 21 22  1  0
 21 45  1  0
 22 23  2  0
 22 46  1  0
 23 24  1  0
 23 47  1  0
 24 29  2  0
 24 25  1  0
 25 26  2  0
 25 48  1  0
 26 27  1  0
 26 49  1  0
 27 28  2  0
 27 50  1  0
 28 29  1  0
 28 51  1  0
 30 31  1  0
 30 52  1  0
 30 53  1  0
 31 54  1  0
 31 55  1  0
M  CHG  1  15   1
M  END
>  <DOCK_score>  (1) 
-58.414398

>  <SMILES>  (1) 
C[C@@H](c1cnn(-c2ccccc2)c1)[NH+]1CC=C(c2cccc3ccccc23)CC1

$$$$
