CCc1ccc(-c2c[nH]c(N[C@H](c3cccc4ccccc34)c3coc4ccccc34)[nH+]2)cc1
     RDKit          3D

 60 65  0  0  1  0  0  0  0  0999 V2000
  132.0630  129.6831  152.6094 C   0  0  0  0  0  0  0  0  0  0  0  0
  130.6564  129.7908  153.2018 C   0  0  0  0  0  0  0  0  0  0  0  0
  130.7076  130.5959  154.4748 C   0  0  0  0  0  0  0  0  0  0  0  0
  130.5435  131.9690  154.4281 C   0  0  0  0  0  0  0  0  0  0  0  0
  130.5899  132.7119  155.5902 C   0  0  0  0  0  0  0  0  0  0  0  0
  130.8021  132.0762  156.8123 C   0  0  0  0  0  0  0  0  0  0  0  0
  130.8530  132.8693  158.0650 C   0  0  0  0  0  0  0  0  0  0  0  0
  130.4832  132.4399  159.2969 C   0  0  0  0  0  0  0  0  0  0  0  0
  130.6913  133.4858  160.1628 N   0  0  0  0  0  0  0  0  0  0  0  0
  130.5201  133.4840  161.1175 H   0  0  0  0  0  0  0  0  0  0  0  0
  131.1828  134.5247  159.4339 C   0  0  0  0  0  0  0  0  0  0  0  0
  131.5250  135.7697  159.9335 N   0  0  0  0  0  0  0  0  0  0  0  0
  131.3672  136.0544  161.3618 C   0  0  2  0  0  0  0  0  0  0  0  0
  130.4391  135.6093  161.7207 H   0  0  0  0  0  0  0  0  0  0  0  0
  131.3245  137.5455  161.5752 C   0  0  0  0  0  0  0  0  0  0  0  0
  130.2306  138.1247  162.1417 C   0  0  0  0  0  0  0  0  0  0  0  0
  130.1729  139.5016  162.3465 C   0  0  0  0  0  0  0  0  0  0  0  0
  131.2087  140.3079  161.9859 C   0  0  0  0  0  0  0  0  0  0  0  0
  132.3547  139.7463  161.3982 C   0  0  0  0  0  0  0  0  0  0  0  0
  133.4438  140.5466  161.0123 C   0  0  0  0  0  0  0  0  0  0  0  0
  134.5373  139.9676  160.4454 C   0  0  0  0  0  0  0  0  0  0  0  0
  134.5948  138.5901  160.2403 C   0  0  0  0  0  0  0  0  0  0  0  0
  133.5598  137.7839  160.6016 C   0  0  0  0  0  0  0  0  0  0  0  0
  132.4135  138.3456  161.1898 C   0  0  0  0  0  0  0  0  0  0  0  0
  132.5306  135.4713  162.1218 C   0  0  0  0  0  0  0  0  0  0  0  0
  133.5668  134.7927  161.6107 C   0  0  0  0  0  0  0  0  0  0  0  0
  134.4108  134.4279  162.5917 O   0  0  0  0  0  0  0  0  0  0  0  0
  133.9653  134.8517  163.7913 C   0  0  0  0  0  0  0  0  0  0  0  0
  134.4537  134.7388  165.0871 C   0  0  0  0  0  0  0  0  0  0  0  0
  133.7511  135.2935  166.1353 C   0  0  0  0  0  0  0  0  0  0  0  0
  132.5582  135.9654  165.9111 C   0  0  0  0  0  0  0  0  0  0  0  0
  132.0600  136.0876  164.6435 C   0  0  0  0  0  0  0  0  0  0  0  0
  132.7597  135.5384  163.5702 C   0  0  0  0  0  0  0  0  0  0  0  0
  131.2735  134.1541  158.1800 N   0  0  0  0  0  0  0  0  0  0  0  0
  131.5920  134.7091  157.4510 H   0  0  0  0  0  0  0  0  0  0  0  0
  130.9722  130.6935  156.8525 C   0  0  0  0  0  0  0  0  0  0  0  0
  130.9181  129.9603  155.6846 C   0  0  0  0  0  0  0  0  0  0  0  0
  132.4432  130.6814  152.3925 H   0  0  0  0  0  0  0  0  0  0  0  0
  132.7217  129.1909  153.3249 H   0  0  0  0  0  0  0  0  0  0  0  0
  132.0259  129.1004  151.6890 H   0  0  0  0  0  0  0  0  0  0  0  0
  130.2761  128.7926  153.4188 H   0  0  0  0  0  0  0  0  0  0  0  0
  129.9976  130.2831  152.4865 H   0  0  0  0  0  0  0  0  0  0  0  0
  130.3790  132.4605  153.4806 H   0  0  0  0  0  0  0  0  0  0  0  0
  130.4615  133.7836  155.5528 H   0  0  0  0  0  0  0  0  0  0  0  0
  130.0980  131.4629  159.5490 H   0  0  0  0  0  0  0  0  0  0  0  0
  131.8693  136.4534  159.3378 H   0  0  0  0  0  0  0  0  0  0  0  0
  129.3951  137.5075  162.4373 H   0  0  0  0  0  0  0  0  0  0  0  0
  129.2929  139.9359  162.7976 H   0  0  0  0  0  0  0  0  0  0  0  0
  131.1481  141.3741  162.1465 H   0  0  0  0  0  0  0  0  0  0  0  0
  133.4130  141.6153  161.1645 H   0  0  0  0  0  0  0  0  0  0  0  0
  135.3728  140.5847  160.1499 H   0  0  0  0  0  0  0  0  0  0  0  0
  135.4743  138.1561  159.7882 H   0  0  0  0  0  0  0  0  0  0  0  0
  133.6188  136.7182  160.4371 H   0  0  0  0  0  0  0  0  0  0  0  0
  133.7041  134.5710  160.5626 H   0  0  0  0  0  0  0  0  0  0  0  0
  135.3812  134.2173  165.2727 H   0  0  0  0  0  0  0  0  0  0  0  0
  134.1330  135.2038  167.1416 H   0  0  0  0  0  0  0  0  0  0  0  0
  132.0194  136.3946  166.7430 H   0  0  0  0  0  0  0  0  0  0  0  0
  131.1310  136.6115  164.4741 H   0  0  0  0  0  0  0  0  0  0  0  0
  131.1417  130.1964  157.7962 H   0  0  0  0  0  0  0  0  0  0  0  0
  131.0453  128.8881  155.7150 H   0  0  0  0  0  0  0  0  0  0  0  0
  1  2  1  0
  1 38  1  0
  1 39  1  0
  1 40  1  0
  2  3  1  0
  2 41  1  0
  2 42  1  0
  3 37  2  0
  3  4  1  0
  4  5  2  0
  4 43  1  0
  5  6  1  0
  5 44  1  0
  6  7  1  0
  6 36  2  0
  7 34  1  0
  7  8  2  0
  8  9  1  0
  8 45  1  0
  9 10  1  0
  9 11  1  0
 11 12  1  0
 11 34  2  0
 12 13  1  0
 12 46  1  0
 13 14  1  1
 13 15  1  0
 13 25  1  0
 15 24  1  0
 15 16  2  0
 16 17  1  0
 16 47  1  0
 17 18  2  0
 17 48  1  0
 18 19  1  0
 18 49  1  0
 19 24  2  0
 19 20  1  0
 20 21  2  0
 20 50  1  0
 21 22  1  0
 21 51  1  0
 22 23  2  0
 22 52  1  0
 23 24  1  0
 23 53  1  0
 25 33  1  0
 25 26  2  0
 26 27  1  0
 26 54  1  0
 27 28  1  0
 28 33  2  0
 28 29  1  0
 29 30  2  0
 29 55  1  0
 30 31  1  0
 30 56  1  0
 31 32  2  0
 31 57  1  0
 32 33  1  0
 32 58  1  0
 34 35  1  0
 36 37  1  0
 36 59  1  0
 37 60  1  0
M  CHG  1  34   1
M  END
>  <DOCK_score>  (1) 
-61.516792

>  <SMILES>  (1) 
CCc1ccc(-c2c[nH]c(N[C@H](c3cccc4ccccc34)c3coc4ccccc34)[nH+]2)cc1

$$$$
