Nc1ccc(-c2cnc([C@@H](Cc3ccncc3)Nc3[nH]cc(-c4cccnc4)[nH+]3)cn2)cc1
     RDKit          3D

 56 60  0  0  1  0  0  0  0  0999 V2000
  136.4663  134.9711  166.9985 N   0  0  0  0  0  0  0  0  0  0  0  0
  135.5436  134.9461  165.9531 C   0  0  0  0  0  0  0  0  0  0  0  0
  134.1946  135.1622  166.2125 C   0  0  0  0  0  0  0  0  0  0  0  0
  133.2810  135.1380  165.1811 C   0  0  0  0  0  0  0  0  0  0  0  0
  133.7103  134.8966  163.8763 C   0  0  0  0  0  0  0  0  0  0  0  0
  132.7294  134.8700  162.7651 C   0  0  0  0  0  0  0  0  0  0  0  0
  133.1167  135.2523  161.4799 C   0  0  0  0  0  0  0  0  0  0  0  0
  132.2406  135.2224  160.4937 N   0  0  0  0  0  0  0  0  0  0  0  0
  130.9955  134.8411  160.7241 C   0  0  0  0  0  0  0  0  0  0  0  0
  129.9974  134.8148  159.5953 C   0  0  1  0  0  0  0  0  0  0  0  0
  129.2587  134.0352  159.7814 H   0  0  0  0  0  0  0  0  0  0  0  0
  129.2952  136.1711  159.5035 C   0  0  0  0  0  0  0  0  0  0  0  0
  128.0006  136.0166  158.7477 C   0  0  0  0  0  0  0  0  0  0  0  0
  126.8215  135.7182  159.4132 C   0  0  0  0  0  0  0  0  0  0  0  0
  125.6527  135.5882  158.6872 C   0  0  0  0  0  0  0  0  0  0  0  0
  125.6528  135.7354  157.3767 N   0  0  0  0  0  0  0  0  0  0  0  0
  126.7560  136.0149  156.7104 C   0  0  0  0  0  0  0  0  0  0  0  0
  127.9614  136.1640  157.3696 C   0  0  0  0  0  0  0  0  0  0  0  0
  130.6921  134.5386  158.3354 N   0  0  0  0  0  0  0  0  0  0  0  0
  130.3597  133.4185  157.5928 C   0  0  0  0  0  0  0  0  0  0  0  0
  129.4145  132.4980  157.9264 N   0  0  0  0  0  0  0  0  0  0  0  0
  128.8571  132.5088  158.7202 H   0  0  0  0  0  0  0  0  0  0  0  0
  129.3935  131.5524  156.9302 C   0  0  0  0  0  0  0  0  0  0  0  0
  130.3313  131.9176  156.0213 C   0  0  0  0  0  0  0  0  0  0  0  0
  130.6672  131.1897  154.7732 C   0  0  0  0  0  0  0  0  0  0  0  0
  129.9969  131.4775  153.5806 C   0  0  0  0  0  0  0  0  0  0  0  0
  130.3505  130.7735  152.4425 C   0  0  0  0  0  0  0  0  0  0  0  0
  131.3393  129.8096  152.5232 C   0  0  0  0  0  0  0  0  0  0  0  0
  131.9508  129.5565  153.6639 N   0  0  0  0  0  0  0  0  0  0  0  0
  131.6520  130.2038  154.7717 C   0  0  0  0  0  0  0  0  0  0  0  0
  130.9076  133.0666  156.4552 N   0  0  0  0  0  0  0  0  0  0  0  0
  131.6125  133.5502  155.9970 H   0  0  0  0  0  0  0  0  0  0  0  0
  130.6072  134.4609  161.9964 C   0  0  0  0  0  0  0  0  0  0  0  0
  131.4774  134.4824  162.9895 N   0  0  0  0  0  0  0  0  0  0  0  0
  135.0629  134.6744  163.6192 C   0  0  0  0  0  0  0  0  0  0  0  0
  135.9739  134.7057  164.6529 C   0  0  0  0  0  0  0  0  0  0  0  0
  136.1671  135.1391  167.9058 H   0  0  0  0  0  0  0  0  0  0  0  0
  137.4074  134.8205  166.8185 H   0  0  0  0  0  0  0  0  0  0  0  0
  133.8626  135.3488  167.2233 H   0  0  0  0  0  0  0  0  0  0  0  0
  132.2336  135.3061  165.3830 H   0  0  0  0  0  0  0  0  0  0  0  0
  134.1324  135.5677  161.2923 H   0  0  0  0  0  0  0  0  0  0  0  0
  129.0877  136.5414  160.5076 H   0  0  0  0  0  0  0  0  0  0  0  0
  129.9388  136.8789  158.9811 H   0  0  0  0  0  0  0  0  0  0  0  0
  126.8158  135.5919  160.4858 H   0  0  0  0  0  0  0  0  0  0  0  0
  124.7294  135.3591  159.1984 H   0  0  0  0  0  0  0  0  0  0  0  0
  126.7170  136.1281  155.6371 H   0  0  0  0  0  0  0  0  0  0  0  0
  128.8616  136.3923  156.8183 H   0  0  0  0  0  0  0  0  0  0  0  0
  131.3879  135.1384  158.0236 H   0  0  0  0  0  0  0  0  0  0  0  0
  128.7552  130.6826  156.8820 H   0  0  0  0  0  0  0  0  0  0  0  0
  129.2255  132.2326  153.5473 H   0  0  0  0  0  0  0  0  0  0  0  0
  129.8566  130.9716  151.5028 H   0  0  0  0  0  0  0  0  0  0  0  0
  131.6149  129.2557  151.6379 H   0  0  0  0  0  0  0  0  0  0  0  0
  132.1752  129.9687  155.6867 H   0  0  0  0  0  0  0  0  0  0  0  0
  129.5902  134.1461  162.1780 H   0  0  0  0  0  0  0  0  0  0  0  0
  135.3969  134.4828  162.6102 H   0  0  0  0  0  0  0  0  0  0  0  0
  137.0220  134.5382  164.4536 H   0  0  0  0  0  0  0  0  0  0  0  0
  1  2  1  0
  1 37  1  0
  1 38  1  0
  2 36  2  0
  2  3  1  0
  3  4  2  0
  3 39  1  0
  4  5  1  0
  4 40  1  0
  5  6  1  0
  5 35  2  0
  6 34  1  0
  6  7  2  0
  7  8  1  0
  7 41  1  0
  8  9  2  0
  9 10  1  0
  9 33  1  0
 10 11  1  1
 10 12  1  0
 10 19  1  0
 12 13  1  0
 12 42  1  0
 12 43  1  0
 13 18  1  0
 13 14  2  0
 14 15  1  0
 14 44  1  0
 15 16  2  0
 15 45  1  0
 16 17  1  0
 17 18  2  0
 17 46  1  0
 18 47  1  0
 19 48  1  0
 20 19  1  0
 20 31  2  0
 20 21  1  0
 21 22  1  0
 21 23  1  0
 23 24  2  0
 23 49  1  0
 24 25  1  0
 24 31  1  0
 25 30  1  0
 25 26  2  0
 26 27  1  0
 26 50  1  0
 27 28  2  0
 27 51  1  0
 28 29  1  0
 28 52  1  0
 29 30  2  0
 30 53  1  0
 31 32  1  0
 33 34  2  0
 33 54  1  0
 35 36  1  0
 35 55  1  0
 36 56  1  0
M  CHG  1  31   1
M  END
>  <DOCK_score>  (1) 
-62.935848

>  <SMILES>  (1) 
Nc1ccc(-c2cnc([C@@H](Cc3ccncc3)Nc3[nH]cc(-c4cccnc4)[nH+]3)cn2)cc1

$$$$
