CCOC1=C(C)C(O)(c2ccc(C[C@H](C)[NH2+]Cc3ccc(C(=O)c4cncc(N)c4)o3)c(Cl)c2)C1
     RDKit          3D

 66 69  0  0  1  0  0  0  0  0999 V2000
  127.2220  138.7726  169.9187 C   0  0  0  0  0  0  0  0  0  0  0  0
  127.2221  138.0896  168.5497 C   0  0  0  0  0  0  0  0  0  0  0  0
  126.6431  138.9657  167.5803 O   0  0  0  0  0  0  0  0  0  0  0  0
  126.5668  138.5089  166.3052 C   0  0  0  0  0  0  0  0  0  0  0  0
  126.1015  139.0388  165.1777 C   0  0  0  0  0  0  0  0  0  0  0  0
  125.4666  140.3659  164.8505 C   0  0  0  0  0  0  0  0  0  0  0  0
  126.4436  137.8210  164.3411 C   0  0  1  0  0  0  0  0  0  0  0  0
  125.3020  137.1421  163.8136 O   0  0  0  0  0  0  0  0  0  0  0  0
  127.5076  138.0750  163.3047 C   0  0  0  0  0  0  0  0  0  0  0  0
  128.4849  139.0253  163.5361 C   0  0  0  0  0  0  0  0  0  0  0  0
  129.4613  139.2589  162.5860 C   0  0  0  0  0  0  0  0  0  0  0  0
  129.4612  138.5425  161.4038 C   0  0  0  0  0  0  0  0  0  0  0  0
  130.5254  138.7977  160.3678 C   0  0  0  0  0  0  0  0  0  0  0  0
  131.7174  137.8730  160.6228 C   0  0  2  0  0  0  0  0  0  0  0  0
  131.8990  137.8015  161.6951 H   0  0  0  0  0  0  0  0  0  0  0  0
  132.9594  138.4398  159.9320 C   0  0  0  0  0  0  0  0  0  0  0  0
  131.4249  136.5375  160.0856 N   0  0  0  0  0  0  0  0  0  0  0  0
  130.4628  136.3013  160.2770 H   0  0  0  0  0  0  0  0  0  0  0  0
  131.5798  136.5348  159.0884 H   0  0  0  0  0  0  0  0  0  0  0  0
  132.3073  135.5499  160.7210 C   0  0  0  0  0  0  0  0  0  0  0  0
  132.0071  134.1799  160.1698 C   0  0  0  0  0  0  0  0  0  0  0  0
  132.9295  133.2691  159.7844 C   0  0  0  0  0  0  0  0  0  0  0  0
  132.2328  132.1374  159.3367 C   0  0  0  0  0  0  0  0  0  0  0  0
  130.8915  132.4222  159.4752 C   0  0  0  0  0  0  0  0  0  0  0  0
  129.7808  131.5316  159.1325 C   0  0  0  0  0  0  0  0  0  0  0  0
  130.0058  130.4246  158.6792 O   0  0  0  0  0  0  0  0  0  0  0  0
  128.3855  131.9772  159.3372 C   0  0  0  0  0  0  0  0  0  0  0  0
  127.5353  131.2754  160.1943 C   0  0  0  0  0  0  0  0  0  0  0  0
  126.2928  131.6691  160.3802 N   0  0  0  0  0  0  0  0  0  0  0  0
  125.7986  132.7307  159.7733 C   0  0  0  0  0  0  0  0  0  0  0  0
  126.5774  133.4848  158.9031 C   0  0  0  0  0  0  0  0  0  0  0  0
  126.0418  134.6075  158.2664 N   0  0  0  0  0  0  0  0  0  0  0  0
  127.8982  133.1119  158.6798 C   0  0  0  0  0  0  0  0  0  0  0  0
  130.7842  133.6657  159.9882 O   0  0  0  0  0  0  0  0  0  0  0  0
  128.4806  137.5954  161.1694 C   0  0  0  0  0  0  0  0  0  0  0  0
  128.4751  136.7008  159.6816 Cl  0  0  0  0  0  0  0  0  0  0  0  0
  127.5067  137.3580  162.1234 C   0  0  0  0  0  0  0  0  0  0  0  0
  126.9818  137.2079  165.6453 C   0  0  0  0  0  0  0  0  0  0  0  0
  126.1976  139.0078  170.2075 H   0  0  0  0  0  0  0  0  0  0  0  0
  127.6637  138.1044  170.6581 H   0  0  0  0  0  0  0  0  0  0  0  0
  127.8049  139.6923  169.8661 H   0  0  0  0  0  0  0  0  0  0  0  0
  126.6392  137.1701  168.6023 H   0  0  0  0  0  0  0  0  0  0  0  0
  128.2465  137.8546  168.2609 H   0  0  0  0  0  0  0  0  0  0  0  0
  124.3856  140.2903  164.9680 H   0  0  0  0  0  0  0  0  0  0  0  0
  125.8529  141.1297  165.5254 H   0  0  0  0  0  0  0  0  0  0  0  0
  125.7022  140.6375  163.8215 H   0  0  0  0  0  0  0  0  0  0  0  0
  124.9421  137.5434  163.0107 H   0  0  0  0  0  0  0  0  0  0  0  0
  128.4852  139.5855  164.4594 H   0  0  0  0  0  0  0  0  0  0  0  0
  130.2242  140.0016  162.7672 H   0  0  0  0  0  0  0  0  0  0  0  0
  130.8512  139.8360  160.4298 H   0  0  0  0  0  0  0  0  0  0  0  0
  130.1201  138.6027  159.3750 H   0  0  0  0  0  0  0  0  0  0  0  0
  133.1766  139.4307  160.3307 H   0  0  0  0  0  0  0  0  0  0  0  0
  132.7780  138.5113  158.8596 H   0  0  0  0  0  0  0  0  0  0  0  0
  133.8087  137.7810  160.1136 H   0  0  0  0  0  0  0  0  0  0  0  0
  133.3466  135.8050  160.5141 H   0  0  0  0  0  0  0  0  0  0  0  0
  132.1399  135.5528  161.7981 H   0  0  0  0  0  0  0  0  0  0  0  0
  134.0022  133.3906  159.8158 H   0  0  0  0  0  0  0  0  0  0  0  0
  132.6630  131.2220  158.9581 H   0  0  0  0  0  0  0  0  0  0  0  0
  127.9012  130.4004  160.7108 H   0  0  0  0  0  0  0  0  0  0  0  0
  124.7735  133.0181  159.9547 H   0  0  0  0  0  0  0  0  0  0  0  0
  125.1210  134.8649  158.4303 H   0  0  0  0  0  0  0  0  0  0  0  0
  126.5907  135.1294  157.6603 H   0  0  0  0  0  0  0  0  0  0  0  0
  128.5297  133.6806  158.0134 H   0  0  0  0  0  0  0  0  0  0  0  0
  126.7434  136.6155  161.9428 H   0  0  0  0  0  0  0  0  0  0  0  0
  126.4174  136.3410  165.9891 H   0  0  0  0  0  0  0  0  0  0  0  0
  128.0587  137.0396  165.6401 H   0  0  0  0  0  0  0  0  0  0  0  0
  1  2  1  0
  1 39  1  0
  1 40  1  0
  1 41  1  0
  2  3  1  0
  2 42  1  0
  2 43  1  0
  3  4  1  0
  4 38  1  0
  4  5  2  0
  5  6  1  0
  5  7  1  0
  6 44  1  0
  6 45  1  0
  6 46  1  0
  7  8  1  6
  7  9  1  0
  7 38  1  0
  8 47  1  0
  9 37  1  0
  9 10  2  0
 10 11  1  0
 10 48  1  0
 11 12  2  0
 11 49  1  0
 12 13  1  0
 12 35  1  0
 13 14  1  0
 13 50  1  0
 13 51  1  0
 14 15  1  1
 14 16  1  0
 14 17  1  0
 16 52  1  0
 16 53  1  0
 16 54  1  0
 17 18  1  0
 17 19  1  0
 17 20  1  0
 20 21  1  0
 20 55  1  0
 20 56  1  0
 21 34  1  0
 21 22  2  0
 22 23  1  0
 22 57  1  0
 23 24  2  0
 23 58  1  0
 24 25  1  0
 24 34  1  0
 25 26  2  0
 25 27  1  0
 27 33  1  0
 27 28  2  0
 28 29  1  0
 28 59  1  0
 29 30  2  0
 30 31  1  0
 30 60  1  0
 31 32  1  0
 31 33  2  0
 32 61  1  0
 32 62  1  0
 33 63  1  0
 35 36  1  0
 35 37  2  0
 37 64  1  0
 38 65  1  0
 38 66  1  0
M  CHG  1  17   1
M  END
>  <DOCK_score>  (1) 
-42.381588

>  <SMILES>  (1) 
CCOC1=C(C)C(O)(c2ccc(C[C@H](C)[NH2+]Cc3ccc(C(=O)c4cncc(N)c4)o3)c(Cl)c2)C1

$$$$
