CCc1ccc(-c2c[nH]c(Nc3ccc(O)cc3C)[nH+]2)cc1
     RDKit          3D

 42 44  0  0  1  0  0  0  0  0999 V2000
  130.2279  128.5651  151.5539 C   0  0  0  0  0  0  0  0  0  0  0  0
  131.3335  129.5780  151.8578 C   0  0  0  0  0  0  0  0  0  0  0  0
  131.0146  130.2997  153.1417 C   0  0  0  0  0  0  0  0  0  0  0  0
  131.4654  129.7930  154.3473 C   0  0  0  0  0  0  0  0  0  0  0  0
  131.1805  130.4524  155.5258 C   0  0  0  0  0  0  0  0  0  0  0  0
  130.4279  131.6253  155.5006 C   0  0  0  0  0  0  0  0  0  0  0  0
  130.1140  132.3357  156.7643 C   0  0  0  0  0  0  0  0  0  0  0  0
  129.4283  131.8256  157.8175 C   0  0  0  0  0  0  0  0  0  0  0  0
  129.3667  132.8137  158.7692 N   0  0  0  0  0  0  0  0  0  0  0  0
  128.9383  132.7495  159.6371 H   0  0  0  0  0  0  0  0  0  0  0  0
  130.0172  133.9001  158.2696 C   0  0  0  0  0  0  0  0  0  0  0  0
  130.1812  135.1120  158.9198 N   0  0  0  0  0  0  0  0  0  0  0  0
  129.2167  135.5517  159.8345 C   0  0  0  0  0  0  0  0  0  0  0  0
  129.5706  135.7919  161.1559 C   0  0  0  0  0  0  0  0  0  0  0  0
  128.6188  136.2254  162.0573 C   0  0  0  0  0  0  0  0  0  0  0  0
  127.3094  136.4214  161.6435 C   0  0  0  0  0  0  0  0  0  0  0  0
  126.3727  136.8482  162.5323 O   0  0  0  0  0  0  0  0  0  0  0  0
  126.9549  136.1815  160.3241 C   0  0  0  0  0  0  0  0  0  0  0  0
  127.9069  135.7532  159.4198 C   0  0  0  0  0  0  0  0  0  0  0  0
  127.5232  135.4993  157.9848 C   0  0  0  0  0  0  0  0  0  0  0  0
  130.4669  133.6083  157.0733 N   0  0  0  0  0  0  0  0  0  0  0  0
  130.9695  134.2078  156.4997 H   0  0  0  0  0  0  0  0  0  0  0  0
  129.9718  132.1284  154.2834 C   0  0  0  0  0  0  0  0  0  0  0  0
  130.2673  131.4634  153.1107 C   0  0  0  0  0  0  0  0  0  0  0  0
  130.1614  127.8444  152.3690 H   0  0  0  0  0  0  0  0  0  0  0  0
  129.2760  129.0861  151.4511 H   0  0  0  0  0  0  0  0  0  0  0  0
  130.4585  128.0430  150.6253 H   0  0  0  0  0  0  0  0  0  0  0  0
  132.2854  129.0570  151.9607 H   0  0  0  0  0  0  0  0  0  0  0  0
  131.4000  130.2987  151.0427 H   0  0  0  0  0  0  0  0  0  0  0  0
  132.0447  128.8817  154.3660 H   0  0  0  0  0  0  0  0  0  0  0  0
  131.5368  130.0583  156.4661 H   0  0  0  0  0  0  0  0  0  0  0  0
  129.0102  130.8327  157.8929 H   0  0  0  0  0  0  0  0  0  0  0  0
  130.9641  135.6561  158.7414 H   0  0  0  0  0  0  0  0  0  0  0  0
  130.5901  135.6399  161.4783 H   0  0  0  0  0  0  0  0  0  0  0  0
  128.8939  136.4125  163.0848 H   0  0  0  0  0  0  0  0  0  0  0  0
  125.4899  136.9558  162.1514 H   0  0  0  0  0  0  0  0  0  0  0  0
  125.9351  136.3339  160.0027 H   0  0  0  0  0  0  0  0  0  0  0  0
  127.2068  134.4624  157.8712 H   0  0  0  0  0  0  0  0  0  0  0  0
  126.7040  136.1618  157.7052 H   0  0  0  0  0  0  0  0  0  0  0  0
  128.3810  135.6901  157.3400 H   0  0  0  0  0  0  0  0  0  0  0  0
  129.3881  133.0366  154.2581 H   0  0  0  0  0  0  0  0  0  0  0  0
  129.9141  131.8522  152.1670 H   0  0  0  0  0  0  0  0  0  0  0  0
  1  2  1  0
  1 25  1  0
  1 26  1  0
  1 27  1  0
  2  3  1  0
  2 28  1  0
  2 29  1  0
  3 24  2  0
  3  4  1  0
  4  5  2  0
  4 30  1  0
  5  6  1  0
  5 31  1  0
  6  7  1  0
  6 23  2  0
  7 21  1  0
  7  8  2  0
  8  9  1  0
  8 32  1  0
  9 10  1  0
  9 11  1  0
 11 12  1  0
 11 21  2  0
 12 13  1  0
 12 33  1  0
 13 19  1  0
 13 14  2  0
 14 15  1  0
 14 34  1  0
 15 16  2  0
 15 35  1  0
 16 17  1  0
 16 18  1  0
 17 36  1  0
 18 19  2  0
 18 37  1  0
 19 20  1  0
 20 38  1  0
 20 39  1  0
 20 40  1  0
 21 22  1  0
 23 24  1  0
 23 41  1  0
 24 42  1  0
M  CHG  1  21   1
M  END
>  <DOCK_score>  (1) 
-56.798016

>  <SMILES>  (1) 
CCc1ccc(-c2c[nH]c(Nc3ccc(O)cc3C)[nH+]2)cc1

$$$$
