Cc1cccnc1CC1=C[C@H]([NH+]=C(NC2CC=CC2)NC2CCCCC2N)CC1
     RDKit          3D

 65 68  0  0  1  0  0  0  0  0999 V2000
  134.8146  140.6242  164.9923 C   0  0  0  0  0  0  0  0  0  0  0  0
  135.2065  140.2951  163.5747 C   0  0  0  0  0  0  0  0  0  0  0  0
  136.2635  140.9560  162.9671 C   0  0  0  0  0  0  0  0  0  0  0  0
  136.5913  140.6174  161.6635 C   0  0  0  0  0  0  0  0  0  0  0  0
  135.8522  139.6469  161.0134 C   0  0  0  0  0  0  0  0  0  0  0  0
  134.8500  139.0425  161.6210 N   0  0  0  0  0  0  0  0  0  0  0  0
  134.5135  139.3352  162.8622 C   0  0  0  0  0  0  0  0  0  0  0  0
  133.3596  138.6148  163.5107 C   0  0  0  0  0  0  0  0  0  0  0  0
  132.7739  137.6254  162.5365 C   0  0  0  0  0  0  0  0  0  0  0  0
  131.8115  137.8966  161.6973 C   0  0  0  0  0  0  0  0  0  0  0  0
  131.4610  136.6872  160.8622 C   0  0  2  0  0  0  0  0  0  0  0  0
  131.8959  136.7701  159.8661 H   0  0  0  0  0  0  0  0  0  0  0  0
  130.0068  136.5346  160.7720 N   0  0  0  0  0  0  0  0  0  0  0  0
  129.4239  137.1687  161.2181 H   0  0  0  0  0  0  0  0  0  0  0  0
  129.4961  135.5466  160.0921 C   0  0  0  0  0  0  0  0  0  0  0  0
  130.1703  135.0379  159.0073 N   0  0  0  0  0  0  0  0  0  0  0  0
  129.5965  133.9275  158.2431 C   0  0  0  0  0  0  0  0  0  0  0  0
  129.5750  132.6287  159.0820 C   0  0  0  0  0  0  0  0  0  0  0  0
  129.8957  131.5294  158.0953 C   0  0  0  0  0  0  0  0  0  0  0  0
  130.4119  132.0165  156.9999 C   0  0  0  0  0  0  0  0  0  0  0  0
  130.5227  133.5216  157.0732 C   0  0  0  0  0  0  0  0  0  0  0  0
  128.2835  135.0134  160.4597 N   0  0  0  0  0  0  0  0  0  0  0  0
  127.5649  135.5554  161.6155 C   0  0  2  0  0  0  0  0  0  0  0  0
  128.4294  135.4064  162.8691 C   0  0  0  0  0  0  0  0  0  0  0  0
  127.6790  135.9725  164.0763 C   0  0  0  0  0  0  0  0  0  0  0  0
  126.3681  135.2069  164.2668 C   0  0  0  0  0  0  0  0  0  0  0  0
  125.5036  135.3560  163.0133 C   0  0  0  0  0  0  0  0  0  0  0  0
  126.2540  134.7899  161.8061 C   0  0  1  0  0  0  0  0  0  0  0  0
  125.4240  134.9330  160.6024 N   0  0  0  0  0  0  0  0  0  0  0  0
  132.0817  135.4926  161.6231 C   0  0  0  0  0  0  0  0  0  0  0  0
  133.2190  136.1872  162.4074 C   0  0  0  0  0  0  0  0  0  0  0  0
  135.3647  139.9816  165.6797 H   0  0  0  0  0  0  0  0  0  0  0  0
  133.7445  140.4616  165.1204 H   0  0  0  0  0  0  0  0  0  0  0  0
  135.0513  141.6674  165.2018 H   0  0  0  0  0  0  0  0  0  0  0  0
  136.8205  141.7137  163.4983 H   0  0  0  0  0  0  0  0  0  0  0  0
  137.4107  141.1090  161.1603 H   0  0  0  0  0  0  0  0  0  0  0  0
  136.0985  139.3801  159.9962 H   0  0  0  0  0  0  0  0  0  0  0  0
  133.7126  138.0870  164.3966 H   0  0  0  0  0  0  0  0  0  0  0  0
  132.5958  139.3372  163.7983 H   0  0  0  0  0  0  0  0  0  0  0  0
  131.3307  138.8596  161.6099 H   0  0  0  0  0  0  0  0  0  0  0  0
  131.0259  135.4140  158.7479 H   0  0  0  0  0  0  0  0  0  0  0  0
  128.5984  134.1776  157.8833 H   0  0  0  0  0  0  0  0  0  0  0  0
  130.3329  132.6695  159.8645 H   0  0  0  0  0  0  0  0  0  0  0  0
  128.5874  132.4737  159.5166 H   0  0  0  0  0  0  0  0  0  0  0  0
  129.7201  130.4787  158.2733 H   0  0  0  0  0  0  0  0  0  0  0  0
  130.7199  131.4218  156.1526 H   0  0  0  0  0  0  0  0  0  0  0  0
  130.1792  133.9734  156.1426 H   0  0  0  0  0  0  0  0  0  0  0  0
  131.5508  133.8170  157.2827 H   0  0  0  0  0  0  0  0  0  0  0  0
  127.9035  134.2781  159.9535 H   0  0  0  0  0  0  0  0  0  0  0  0
  127.3485  136.6103  161.4469 H   0  0  0  0  0  0  0  0  0  0  0  0
  128.6459  134.3515  163.0378 H   0  0  0  0  0  0  0  0  0  0  0  0
  129.3633  135.9517  162.7333 H   0  0  0  0  0  0  0  0  0  0  0  0
  127.4626  137.0273  163.9075 H   0  0  0  0  0  0  0  0  0  0  0  0
  128.2950  135.8663  164.9694 H   0  0  0  0  0  0  0  0  0  0  0  0
  125.8335  135.6102  165.1269 H   0  0  0  0  0  0  0  0  0  0  0  0
  126.5846  134.1521  164.4355 H   0  0  0  0  0  0  0  0  0  0  0  0
  125.2871  136.4108  162.8445 H   0  0  0  0  0  0  0  0  0  0  0  0
  124.5697  134.8106  163.1489 H   0  0  0  0  0  0  0  0  0  0  0  0
  126.4704  133.7350  161.9747 H   0  0  0  0  0  0  0  0  0  0  0  0
  124.5518  134.4359  160.7035 H   0  0  0  0  0  0  0  0  0  0  0  0
  125.2631  135.9055  160.3877 H   0  0  0  0  0  0  0  0  0  0  0  0
  132.4802  134.7516  160.9300 H   0  0  0  0  0  0  0  0  0  0  0  0
  131.3573  135.0416  162.3014 H   0  0  0  0  0  0  0  0  0  0  0  0
  134.1549  136.1277  161.8518 H   0  0  0  0  0  0  0  0  0  0  0  0
  133.3322  135.7348  163.3927 H   0  0  0  0  0  0  0  0  0  0  0  0
  1  2  1  0
  1 32  1  0
  1 33  1  0
  1 34  1  0
  2  7  2  0
  2  3  1  0
  3  4  2  0
  3 35  1  0
  4  5  1  0
  4 36  1  0
  5  6  2  0
  5 37  1  0
  6  7  1  0
  7  8  1  0
  8  9  1  0
  8 38  1  0
  8 39  1  0
  9 31  1  0
  9 10  2  0
 10 11  1  0
 10 40  1  0
 11 12  1  6
 11 13  1  0
 11 30  1  0
 13 14  1  0
 15 13  2  0
 15 16  1  0
 15 22  1  0
 16 17  1  0
 16 41  1  0
 17 21  1  0
 17 18  1  0
 17 42  1  0
 18 19  1  0
 18 43  1  0
 18 44  1  0
 19 20  2  0
 19 45  1  0
 20 21  1  0
 20 46  1  0
 21 47  1  0
 21 48  1  0
 22 23  1  0
 22 49  1  0
 23 28  1  0
 23 24  1  0
 23 50  1  6
 24 25  1  0
 24 51  1  0
 24 52  1  0
 25 26  1  0
 25 53  1  0
 25 54  1  0
 26 27  1  0
 26 55  1  0
 26 56  1  0
 27 28  1  0
 27 57  1  0
 27 58  1  0
 28 29  1  0
 28 59  1  1
 29 60  1  0
 29 61  1  0
 30 31  1  0
 30 62  1  0
 30 63  1  0
 31 64  1  0
 31 65  1  0
M  CHG  1  13   1
M  END
>  <DOCK_score>  (1) 
-43.382549

>  <SMILES>  (1) 
Cc1cccnc1CC1=C[C@H]([NH+]=C(NC2CC=CC2)NC2CCCCC2N)CC1

$$$$
