OCC[NH2+]Cc1c[nH]nc1-c1ccc(NC[C@H]2CCC3CC3C2)o1
     RDKit          3D

 51 54  0  0  1  0  0  0  0  0999 V2000
  132.1280  139.3813  158.3844 O   0  0  0  0  0  0  0  0  0  0  0  0
  131.1927  139.4643  159.4616 C   0  0  0  0  0  0  0  0  0  0  0  0
  131.3854  138.2697  160.3977 C   0  0  0  0  0  0  0  0  0  0  0  0
  131.1646  137.0231  159.6526 N   0  0  0  0  0  0  0  0  0  0  0  0
  131.8251  136.9643  158.8920 H   0  0  0  0  0  0  0  0  0  0  0  0
  130.2254  137.0133  159.2841 H   0  0  0  0  0  0  0  0  0  0  0  0
  131.3498  135.8759  160.5514 C   0  0  0  0  0  0  0  0  0  0  0  0
  131.1233  134.5971  159.7870 C   0  0  0  0  0  0  0  0  0  0  0  0
  132.0636  133.8882  159.1265 C   0  0  0  0  0  0  0  0  0  0  0  0
  131.4632  132.8143  158.5691 N   0  0  0  0  0  0  0  0  0  0  0  0
  131.8992  132.1333  158.0333 H   0  0  0  0  0  0  0  0  0  0  0  0
  130.1026  132.8538  158.8990 N   0  0  0  0  0  0  0  0  0  0  0  0
  129.8914  133.9260  159.6369 C   0  0  0  0  0  0  0  0  0  0  0  0
  128.5940  134.3522  160.2009 C   0  0  0  0  0  0  0  0  0  0  0  0
  127.4097  133.7019  160.0539 C   0  0  0  0  0  0  0  0  0  0  0  0
  126.4435  134.4501  160.7549 C   0  0  0  0  0  0  0  0  0  0  0  0
  127.0824  135.5217  161.2872 C   0  0  0  0  0  0  0  0  0  0  0  0
  126.4934  136.5186  162.0563 N   0  0  0  0  0  0  0  0  0  0  0  0
  127.3218  137.3609  162.9228 C   0  0  0  0  0  0  0  0  0  0  0  0
  127.4333  136.7156  164.3055 C   0  0  1  0  0  0  0  0  0  0  0  0
  127.7273  137.4658  165.0396 H   0  0  0  0  0  0  0  0  0  0  0  0
  126.0819  136.1098  164.7014 C   0  0  0  0  0  0  0  0  0  0  0  0
  126.1062  135.7898  166.1961 C   0  0  0  0  0  0  0  0  0  0  0  0
  127.3077  134.9057  166.5249 C   0  0  2  0  0  0  0  0  0  0  0  0
  128.6064  135.6372  166.8981 C   0  0  0  0  0  0  0  0  0  0  0  0
  128.5095  134.8557  165.5945 C   0  0  2  0  0  0  0  0  0  0  0  0
  128.4760  135.5983  164.2678 C   0  0  0  0  0  0  0  0  0  0  0  0
  128.3818  135.4542  160.9508 O   0  0  0  0  0  0  0  0  0  0  0  0
  132.0403  138.5815  157.8481 H   0  0  0  0  0  0  0  0  0  0  0  0
  130.1781  139.4539  159.0635 H   0  0  0  0  0  0  0  0  0  0  0  0
  131.3566  140.3893  160.0145 H   0  0  0  0  0  0  0  0  0  0  0  0
  130.6720  138.3331  161.2193 H   0  0  0  0  0  0  0  0  0  0  0  0
  132.4000  138.2800  160.7960 H   0  0  0  0  0  0  0  0  0  0  0  0
  130.6364  135.9394  161.3732 H   0  0  0  0  0  0  0  0  0  0  0  0
  132.3643  135.8865  160.9496 H   0  0  0  0  0  0  0  0  0  0  0  0
  133.1116  134.1384  159.0530 H   0  0  0  0  0  0  0  0  0  0  0  0
  127.2423  132.7851  159.5082 H   0  0  0  0  0  0  0  0  0  0  0  0
  125.3933  134.2159  160.8491 H   0  0  0  0  0  0  0  0  0  0  0  0
  125.5340  136.6568  162.0192 H   0  0  0  0  0  0  0  0  0  0  0  0
  126.8642  138.3457  163.0172 H   0  0  0  0  0  0  0  0  0  0  0  0
  128.3160  137.4625  162.4879 H   0  0  0  0  0  0  0  0  0  0  0  0
  125.2854  136.8242  164.4930 H   0  0  0  0  0  0  0  0  0  0  0  0
  125.9106  135.1949  164.1341 H   0  0  0  0  0  0  0  0  0  0  0  0
  126.1780  136.7180  166.7631 H   0  0  0  0  0  0  0  0  0  0  0  0
  125.1871  135.2718  166.4697 H   0  0  0  0  0  0  0  0  0  0  0  0
  127.0691  133.9993  167.0813 H   0  0  0  0  0  0  0  0  0  0  0  0
  129.2130  135.2110  167.6974 H   0  0  0  0  0  0  0  0  0  0  0  0
  128.6082  136.7252  166.8345 H   0  0  0  0  0  0  0  0  0  0  0  0
  129.0578  133.9138  165.5743 H   0  0  0  0  0  0  0  0  0  0  0  0
  128.2251  134.8989  163.4704 H   0  0  0  0  0  0  0  0  0  0  0  0
  129.4580  136.0290  164.0720 H   0  0  0  0  0  0  0  0  0  0  0  0
  1  2  1  0
  1 29  1  0
  2  3  1  0
  2 30  1  0
  2 31  1  0
  3  4  1  0
  3 32  1  0
  3 33  1  0
  4  5  1  0
  4  6  1  0
  4  7  1  0
  7  8  1  0
  7 34  1  0
  7 35  1  0
  8 13  1  0
  8  9  2  0
  9 10  1  0
  9 36  1  0
 10 11  1  0
 10 12  1  0
 12 13  2  0
 13 14  1  0
 14 28  1  0
 14 15  2  0
 15 16  1  0
 15 37  1  0
 16 17  2  0
 16 38  1  0
 17 18  1  0
 17 28  1  0
 18 19  1  0
 18 39  1  0
 19 20  1  0
 19 40  1  0
 19 41  1  0
 20 21  1  1
 20 27  1  0
 20 22  1  0
 22 23  1  0
 22 42  1  0
 22 43  1  0
 23 24  1  0
 23 44  1  0
 23 45  1  0
 24 26  1  0
 24 25  1  0
 24 46  1  1
 25 26  1  0
 25 47  1  0
 25 48  1  0
 26 27  1  0
 26 49  1  6
 27 50  1  0
 27 51  1  0
M  CHG  1   4   1
M  END
>  <DOCK_score>  (1) 
-45.205074

>  <SMILES>  (1) 
OCC[NH2+]Cc1c[nH]nc1-c1ccc(NC[C@H]2CCC3CC3C2)o1

$$$$
