Nc1ccc(-c2c[nH]c(NC=CCC3=CCC=C(C/C=C/c4ccc(F)cc4)C3)[nH+]2)cc1
     RDKit          3D

 60 63  0  0  1  0  0  0  0  0999 V2000
  131.3524  129.3411  151.5680 N   0  0  0  0  0  0  0  0  0  0  0  0
  131.0164  130.0751  152.7080 C   0  0  0  0  0  0  0  0  0  0  0  0
  130.3273  131.2754  152.5823 C   0  0  0  0  0  0  0  0  0  0  0  0
  129.9945  132.0017  153.7062 C   0  0  0  0  0  0  0  0  0  0  0  0
  130.3500  131.5311  154.9694 C   0  0  0  0  0  0  0  0  0  0  0  0
  129.9931  132.3106  156.1801 C   0  0  0  0  0  0  0  0  0  0  0  0
  129.2139  131.8821  157.2041 C   0  0  0  0  0  0  0  0  0  0  0  0
  129.1473  132.9114  158.1122 N   0  0  0  0  0  0  0  0  0  0  0  0
  128.6645  132.9052  158.9535 H   0  0  0  0  0  0  0  0  0  0  0  0
  129.8817  133.9421  157.6115 C   0  0  0  0  0  0  0  0  0  0  0  0
  130.0683  135.1716  158.2224 N   0  0  0  0  0  0  0  0  0  0  0  0
  129.4790  135.4322  159.4544 C   0  0  0  0  0  0  0  0  0  0  0  0
  129.6568  136.6035  160.0364 C   0  0  0  0  0  0  0  0  0  0  0  0
  129.0180  136.8861  161.3717 C   0  0  0  0  0  0  0  0  0  0  0  0
  130.0891  137.1961  162.3855 C   0  0  0  0  0  0  0  0  0  0  0  0
  130.1898  136.4376  163.4344 C   0  0  0  0  0  0  0  0  0  0  0  0
  131.2146  136.6626  164.5049 C   0  0  0  0  0  0  0  0  0  0  0  0
  131.7461  138.0637  164.4608 C   0  0  0  0  0  0  0  0  0  0  0  0
  131.6454  138.8220  163.4120 C   0  0  0  0  0  0  0  0  0  0  0  0
  132.2140  140.2164  163.4733 C   0  0  0  0  0  0  0  0  0  0  0  0
  133.2754  140.3729  162.4150 C   0  0  0  0  0  0  0  0  0  0  0  0
  134.5387  140.0842  162.6953 C   0  0  0  0  0  0  0  0  0  0  0  0
  135.5797  140.2376  161.6573 C   0  0  0  0  0  0  0  0  0  0  0  0
  135.3485  141.0536  160.5491 C   0  0  0  0  0  0  0  0  0  0  0  0
  136.3254  141.1976  159.5860 C   0  0  0  0  0  0  0  0  0  0  0  0
  137.5304  140.5250  159.7120 C   0  0  0  0  0  0  0  0  0  0  0  0
  138.4820  140.6654  158.7634 F   0  0  0  0  0  0  0  0  0  0  0  0
  137.7630  139.7094  160.8079 C   0  0  0  0  0  0  0  0  0  0  0  0
  136.7949  139.5627  161.7793 C   0  0  0  0  0  0  0  0  0  0  0  0
  130.9884  138.3707  162.1424 C   0  0  0  0  0  0  0  0  0  0  0  0
  130.3878  133.5778  156.4584 N   0  0  0  0  0  0  0  0  0  0  0  0
  130.9548  134.1267  155.8945 H   0  0  0  0  0  0  0  0  0  0  0  0
  131.0462  130.3298  155.0928 C   0  0  0  0  0  0  0  0  0  0  0  0
  131.3713  129.6037  153.9665 C   0  0  0  0  0  0  0  0  0  0  0  0
  131.1048  129.6691  150.6895 H   0  0  0  0  0  0  0  0  0  0  0  0
  131.8334  128.5031  151.6550 H   0  0  0  0  0  0  0  0  0  0  0  0
  130.0525  131.6399  151.6036 H   0  0  0  0  0  0  0  0  0  0  0  0
  129.4587  132.9342  153.6080 H   0  0  0  0  0  0  0  0  0  0  0  0
  128.7398  130.9156  157.2912 H   0  0  0  0  0  0  0  0  0  0  0  0
  130.6102  135.8505  157.7906 H   0  0  0  0  0  0  0  0  0  0  0  0
  128.8757  134.6764  159.9352 H   0  0  0  0  0  0  0  0  0  0  0  0
  130.2601  137.3594  159.5557 H   0  0  0  0  0  0  0  0  0  0  0  0
  128.4527  136.0125  161.6962 H   0  0  0  0  0  0  0  0  0  0  0  0
  128.3466  137.7398  161.2800 H   0  0  0  0  0  0  0  0  0  0  0  0
  129.5053  135.6090  163.5404 H   0  0  0  0  0  0  0  0  0  0  0  0
  132.0386  135.9633  164.3628 H   0  0  0  0  0  0  0  0  0  0  0  0
  130.7593  136.4835  165.4789 H   0  0  0  0  0  0  0  0  0  0  0  0
  132.2334  138.4593  165.3397 H   0  0  0  0  0  0  0  0  0  0  0  0
  131.4185  140.9411  163.2999 H   0  0  0  0  0  0  0  0  0  0  0  0
  132.6532  140.3868  164.4562 H   0  0  0  0  0  0  0  0  0  0  0  0
  133.0070  140.7202  161.4282 H   0  0  0  0  0  0  0  0  0  0  0  0
  134.8071  139.7369  163.6820 H   0  0  0  0  0  0  0  0  0  0  0  0
  134.4080  141.5747  160.4478 H   0  0  0  0  0  0  0  0  0  0  0  0
  136.1490  141.8320  158.7300 H   0  0  0  0  0  0  0  0  0  0  0  0
  138.7038  139.1875  160.9013 H   0  0  0  0  0  0  0  0  0  0  0  0
  136.9773  138.9268  162.6330 H   0  0  0  0  0  0  0  0  0  0  0  0
  131.7571  138.0892  161.4229 H   0  0  0  0  0  0  0  0  0  0  0  0
  130.4002  139.1924  161.7337 H   0  0  0  0  0  0  0  0  0  0  0  0
  131.3266  129.9656  156.0702 H   0  0  0  0  0  0  0  0  0  0  0  0
  131.9061  128.6704  154.0620 H   0  0  0  0  0  0  0  0  0  0  0  0
  1  2  1  0
  1 35  1  0
  1 36  1  0
  2 34  2  0
  2  3  1  0
  3  4  2  0
  3 37  1  0
  4  5  1  0
  4 38  1  0
  5  6  1  0
  5 33  2  0
  6 31  1  0
  6  7  2  0
  7  8  1  0
  7 39  1  0
  8  9  1  0
  8 10  1  0
 10 11  1  0
 10 31  2  0
 11 12  1  0
 11 40  1  0
 12 13  2  0
 12 41  1  0
 13 14  1  0
 13 42  1  0
 14 15  1  0
 14 43  1  0
 14 44  1  0
 15 30  1  0
 15 16  2  0
 16 17  1  0
 16 45  1  0
 17 18  1  0
 17 46  1  0
 17 47  1  0
 18 19  2  0
 18 48  1  0
 19 20  1  0
 19 30  1  0
 20 21  1  0
 20 49  1  0
 20 50  1  0
 21 22  2  0
 21 51  1  0
 22 23  1  0
 22 52  1  0
 23 29  1  0
 23 24  2  0
 24 25  1  0
 24 53  1  0
 25 26  2  0
 25 54  1  0
 26 27  1  0
 26 28  1  0
 28 29  2  0
 28 55  1  0
 29 56  1  0
 30 57  1  0
 30 58  1  0
 31 32  1  0
 33 34  1  0
 33 59  1  0
 34 60  1  0
M  CHG  1  31   1
M  END
>  <DOCK_score>  (1) 
-61.724792

>  <SMILES>  (1) 
Nc1ccc(-c2c[nH]c(NC=CCC3=CCC=C(C/C=C/c4ccc(F)cc4)C3)[nH+]2)cc1

$$$$
