CCc1ccc(-c2c[nH]c(Nc3ccc(Nc4cccnc4)cc3)[nH+]2)cc1
     RDKit          3D

 49 52  0  0  1  0  0  0  0  0999 V2000
  130.3367  128.2688  151.5053 C   0  0  0  0  0  0  0  0  0  0  0  0
  131.3024  129.4478  151.6378 C   0  0  0  0  0  0  0  0  0  0  0  0
  131.0130  130.1932  152.9152 C   0  0  0  0  0  0  0  0  0  0  0  0
  131.6578  129.8326  154.0844 C   0  0  0  0  0  0  0  0  0  0  0  0
  131.4011  130.5152  155.2560 C   0  0  0  0  0  0  0  0  0  0  0  0
  130.4815  131.5626  155.2621 C   0  0  0  0  0  0  0  0  0  0  0  0
  130.1972  132.2963  156.5194 C   0  0  0  0  0  0  0  0  0  0  0  0
  129.7100  131.7579  157.6650 C   0  0  0  0  0  0  0  0  0  0  0  0
  129.5988  132.7834  158.5717 N   0  0  0  0  0  0  0  0  0  0  0  0
  129.2785  132.7111  159.4844 H   0  0  0  0  0  0  0  0  0  0  0  0
  130.0217  133.9199  157.9533 C   0  0  0  0  0  0  0  0  0  0  0  0
  130.0681  135.1803  158.5255 N   0  0  0  0  0  0  0  0  0  0  0  0
  129.1497  135.5308  159.5227 C   0  0  0  0  0  0  0  0  0  0  0  0
  129.5092  136.4395  160.5095 C   0  0  0  0  0  0  0  0  0  0  0  0
  128.6017  136.7893  161.4895 C   0  0  0  0  0  0  0  0  0  0  0  0
  127.3329  136.2240  161.4947 C   0  0  0  0  0  0  0  0  0  0  0  0
  126.4145  136.5750  162.4910 N   0  0  0  0  0  0  0  0  0  0  0  0
  126.7167  136.3385  163.8344 C   0  0  0  0  0  0  0  0  0  0  0  0
  127.5413  135.2755  164.1971 C   0  0  0  0  0  0  0  0  0  0  0  0
  127.8117  135.0816  165.5414 C   0  0  0  0  0  0  0  0  0  0  0  0
  127.2594  135.9422  166.4723 C   0  0  0  0  0  0  0  0  0  0  0  0
  126.4822  136.9389  166.0967 N   0  0  0  0  0  0  0  0  0  0  0  0
  126.2042  137.1630  164.8279 C   0  0  0  0  0  0  0  0  0  0  0  0
  126.9754  135.3109  160.5111 C   0  0  0  0  0  0  0  0  0  0  0  0
  127.8812  134.9651  159.5282 C   0  0  0  0  0  0  0  0  0  0  0  0
  130.3840  133.6233  156.7288 N   0  0  0  0  0  0  0  0  0  0  0  0
  130.7281  134.2528  156.0760 H   0  0  0  0  0  0  0  0  0  0  0  0
  129.8305  131.9182  154.0822 C   0  0  0  0  0  0  0  0  0  0  0  0
  130.0993  131.2323  152.9151 C   0  0  0  0  0  0  0  0  0  0  0  0
  130.5461  127.7298  150.5812 H   0  0  0  0  0  0  0  0  0  0  0  0
  130.4649  127.5974  152.3544 H   0  0  0  0  0  0  0  0  0  0  0  0
  129.3116  128.6387  151.4858 H   0  0  0  0  0  0  0  0  0  0  0  0
  132.3273  129.0784  151.6568 H   0  0  0  0  0  0  0  0  0  0  0  0
  131.1740  130.1197  150.7883 H   0  0  0  0  0  0  0  0  0  0  0  0
  132.3668  129.0181  154.0794 H   0  0  0  0  0  0  0  0  0  0  0  0
  131.9085  130.2354  156.1674 H   0  0  0  0  0  0  0  0  0  0  0  0
  129.4582  130.7211  157.8322 H   0  0  0  0  0  0  0  0  0  0  0  0
  130.7369  135.8203  158.2355 H   0  0  0  0  0  0  0  0  0  0  0  0
  130.4971  136.8757  160.5079 H   0  0  0  0  0  0  0  0  0  0  0  0
  128.8796  137.4995  162.2543 H   0  0  0  0  0  0  0  0  0  0  0  0
  125.5682  136.9825  162.2486 H   0  0  0  0  0  0  0  0  0  0  0  0
  127.9596  134.6190  163.4482 H   0  0  0  0  0  0  0  0  0  0  0  0
  128.4470  134.2681  165.8589 H   0  0  0  0  0  0  0  0  0  0  0  0
  127.4671  135.7954  167.5219 H   0  0  0  0  0  0  0  0  0  0  0  0
  125.5675  137.9926  164.5585 H   0  0  0  0  0  0  0  0  0  0  0  0
  125.9890  134.8712  160.5153 H   0  0  0  0  0  0  0  0  0  0  0  0
  127.6032  134.2551  158.7633 H   0  0  0  0  0  0  0  0  0  0  0  0
  129.1167  132.7287  154.0811 H   0  0  0  0  0  0  0  0  0  0  0  0
  129.5956  131.5071  152.0001 H   0  0  0  0  0  0  0  0  0  0  0  0
  1  2  1  0
  1 30  1  0
  1 31  1  0
  1 32  1  0
  2  3  1  0
  2 33  1  0
  2 34  1  0
  3 29  2  0
  3  4  1  0
  4  5  2  0
  4 35  1  0
  5  6  1  0
  5 36  1  0
  6  7  1  0
  6 28  2  0
  7 26  1  0
  7  8  2  0
  8  9  1  0
  8 37  1  0
  9 10  1  0
  9 11  1  0
 11 12  1  0
 11 26  2  0
 12 13  1  0
 12 38  1  0
 13 25  1  0
 13 14  2  0
 14 15  1  0
 14 39  1  0
 15 16  2  0
 15 40  1  0
 16 17  1  0
 16 24  1  0
 17 18  1  0
 17 41  1  0
 18 23  1  0
 18 19  2  0
 19 20  1  0
 19 42  1  0
 20 21  2  0
 20 43  1  0
 21 22  1  0
 21 44  1  0
 22 23  2  0
 23 45  1  0
 24 25  2  0
 24 46  1  0
 25 47  1  0
 26 27  1  0
 28 29  1  0
 28 48  1  0
 29 49  1  0
M  CHG  1  26   1
M  END
>  <DOCK_score>  (1) 
-57.04245

>  <SMILES>  (1) 
CCc1ccc(-c2c[nH]c(Nc3ccc(Nc4cccnc4)cc3)[nH+]2)cc1

$$$$
