O=C1CCC(NC(NC2CC2)=[NH+][C@H]2C3Cc4ccc(Cl)cc4C32)CN1
     RDKit          3D

 49 53  0  0  1  0  0  0  0  0999 V2000
  123.7043  133.6867  161.4423 O   0  0  0  0  0  0  0  0  0  0  0  0
  124.8741  133.9368  161.2424 C   0  0  0  0  0  0  0  0  0  0  0  0
  125.7532  132.8435  160.7066 C   0  0  0  0  0  0  0  0  0  0  0  0
  127.2244  133.1998  160.9337 C   0  0  0  0  0  0  0  0  0  0  0  0
  127.4566  134.6346  160.4453 C   0  0  2  0  0  0  0  0  0  0  0  0
  128.8882  134.9430  160.4887 N   0  0  0  0  0  0  0  0  0  0  0  0
  129.6796  134.6886  159.3937 C   0  0  0  0  0  0  0  0  0  0  0  0
  129.1277  134.1448  158.2578 N   0  0  0  0  0  0  0  0  0  0  0  0
  129.9374  133.2886  157.3875 C   0  0  0  0  0  0  0  0  0  0  0  0
  129.3614  131.9237  157.0054 C   0  0  0  0  0  0  0  0  0  0  0  0
  130.5227  132.0134  157.9974 C   0  0  0  0  0  0  0  0  0  0  0  0
  130.9533  134.9630  159.4322 N   0  0  0  0  0  0  0  0  0  0  0  0
  131.4216  135.2069  158.6185 H   0  0  0  0  0  0  0  0  0  0  0  0
  131.6774  134.9032  160.7042 C   0  0  1  0  0  0  0  0  0  0  0  0
  131.6762  133.9326  161.2004 H   0  0  0  0  0  0  0  0  0  0  0  0
  132.9341  135.7656  160.8428 C   0  0  2  0  0  0  0  0  0  0  0  0
  133.9455  135.4176  161.9429 C   0  0  0  0  0  0  0  0  0  0  0  0
  133.2377  135.5905  163.2652 C   0  0  0  0  0  0  0  0  0  0  0  0
  133.7101  135.3963  164.5557 C   0  0  0  0  0  0  0  0  0  0  0  0
  132.8851  135.6155  165.6400 C   0  0  0  0  0  0  0  0  0  0  0  0
  131.5802  136.0301  165.4404 C   0  0  0  0  0  0  0  0  0  0  0  0
  130.5375  136.3065  166.8005 Cl  0  0  0  0  0  0  0  0  0  0  0  0
  131.1088  136.2229  164.1564 C   0  0  0  0  0  0  0  0  0  0  0  0
  131.9383  136.0040  163.0655 C   0  0  0  0  0  0  0  0  0  0  0  0
  131.6509  136.1492  161.5909 C   0  0  2  0  0  0  0  0  0  0  0  0
  126.6972  135.5932  161.3633 C   0  0  0  0  0  0  0  0  0  0  0  0
  125.3110  135.1678  161.5107 N   0  0  0  0  0  0  0  0  0  0  0  0
  125.5706  132.7227  159.6388 H   0  0  0  0  0  0  0  0  0  0  0  0
  125.5233  131.9098  161.2198 H   0  0  0  0  0  0  0  0  0  0  0  0
  127.8589  132.5138  160.3725 H   0  0  0  0  0  0  0  0  0  0  0  0
  127.4594  133.1311  161.9959 H   0  0  0  0  0  0  0  0  0  0  0  0
  127.0888  134.7374  159.4244 H   0  0  0  0  0  0  0  0  0  0  0  0
  129.2776  135.3266  161.2899 H   0  0  0  0  0  0  0  0  0  0  0  0
  128.2021  134.3279  158.0330 H   0  0  0  0  0  0  0  0  0  0  0  0
  130.5359  133.8099  156.6403 H   0  0  0  0  0  0  0  0  0  0  0  0
  128.3801  131.6628  157.4015 H   0  0  0  0  0  0  0  0  0  0  0  0
  129.5808  131.5466  156.0063 H   0  0  0  0  0  0  0  0  0  0  0  0
  131.5061  131.6953  157.6510 H   0  0  0  0  0  0  0  0  0  0  0  0
  130.3055  131.8114  159.0462 H   0  0  0  0  0  0  0  0  0  0  0  0
  133.2881  136.3373  159.9850 H   0  0  0  0  0  0  0  0  0  0  0  0
  134.8003  136.0917  161.8883 H   0  0  0  0  0  0  0  0  0  0  0  0
  134.2789  134.3857  161.8322 H   0  0  0  0  0  0  0  0  0  0  0  0
  134.7285  135.0726  164.7122 H   0  0  0  0  0  0  0  0  0  0  0  0
  133.2571  135.4633  166.6425 H   0  0  0  0  0  0  0  0  0  0  0  0
  130.0903  136.5463  164.0007 H   0  0  0  0  0  0  0  0  0  0  0  0
  131.0478  137.0034  161.2832 H   0  0  0  0  0  0  0  0  0  0  0  0
  127.1754  135.6089  162.3427 H   0  0  0  0  0  0  0  0  0  0  0  0
  126.7229  136.5963  160.9373 H   0  0  0  0  0  0  0  0  0  0  0  0
  124.6658  135.8212  161.8234 H   0  0  0  0  0  0  0  0  0  0  0  0
  1  2  2  0
  2 27  1  0
  2  3  1  0
  3  4  1  0
  3 28  1  0
  3 29  1  0
  4  5  1  0
  4 30  1  0
  4 31  1  0
  5  6  1  0
  5 26  1  0
  5 32  1  6
  6 33  1  0
  7  6  1  0
  7  8  1  0
  7 12  2  0
  8  9  1  0
  8 34  1  0
  9 11  1  0
  9 10  1  0
  9 35  1  0
 10 11  1  0
 10 36  1  0
 10 37  1  0
 11 38  1  0
 11 39  1  0
 12 13  1  0
 12 14  1  0
 14 15  1  1
 14 25  1  0
 14 16  1  0
 16 25  1  0
 16 17  1  0
 16 40  1  6
 17 18  1  0
 17 41  1  0
 17 42  1  0
 18 24  2  0
 18 19  1  0
 19 20  2  0
 19 43  1  0
 20 21  1  0
 20 44  1  0
 21 22  1  0
 21 23  2  0
 23 24  1  0
 23 45  1  0
 24 25  1  0
 25 46  1  1
 26 27  1  0
 26 47  1  0
 26 48  1  0
 27 49  1  0
M  CHG  1  12   1
M  END
>  <DOCK_score>  (1) 
-46.46077

>  <SMILES>  (1) 
O=C1CCC(NC(NC2CC2)=[NH+][C@H]2C3Cc4ccc(Cl)cc4C32)CN1

$$$$
