CCOC(=O)c1oc2ccc(C3[C@H](C)[C@H]3C)cc2c1C[NH2+][C@H]1COC2(CC2)C1
     RDKit          3D

 58 62  0  0  1  0  0  0  0  0999 V2000
  126.3017  133.5276  161.7535 C   0  0  0  0  0  0  0  0  0  0  0  0
  126.1301  134.5660  160.6431 C   0  0  0  0  0  0  0  0  0  0  0  0
  127.3763  135.2878  160.4585 O   0  0  0  0  0  0  0  0  0  0  0  0
  127.5519  136.4043  161.1942 C   0  0  0  0  0  0  0  0  0  0  0  0
  126.6867  136.7644  161.9688 O   0  0  0  0  0  0  0  0  0  0  0  0
  128.7854  137.1883  161.0555 C   0  0  0  0  0  0  0  0  0  0  0  0
  128.8815  138.5229  161.2319 O   0  0  0  0  0  0  0  0  0  0  0  0
  130.1468  138.9427  161.0374 C   0  0  0  0  0  0  0  0  0  0  0  0
  130.7561  140.1908  161.0993 C   0  0  0  0  0  0  0  0  0  0  0  0
  132.1031  140.3102  160.8350 C   0  0  0  0  0  0  0  0  0  0  0  0
  132.8638  139.1960  160.5071 C   0  0  0  0  0  0  0  0  0  0  0  0
  134.3356  139.3517  160.2232 C   0  0  0  0  0  0  0  0  0  0  0  0
  135.3119  139.0266  161.3555 C   0  0  2  0  0  0  0  0  0  0  0  0
  136.2648  138.5729  161.0836 H   0  0  0  0  0  0  0  0  0  0  0  0
  134.7189  138.5684  162.6894 C   0  0  0  0  0  0  0  0  0  0  0  0
  135.0777  140.4813  160.9402 C   0  0  1  0  0  0  0  0  0  0  0  0
  134.5014  141.1120  161.6170 H   0  0  0  0  0  0  0  0  0  0  0  0
  136.1996  141.1867  160.1753 C   0  0  0  0  0  0  0  0  0  0  0  0
  132.2871  137.9595  160.4406 C   0  0  0  0  0  0  0  0  0  0  0  0
  130.9225  137.8165  160.7046 C   0  0  0  0  0  0  0  0  0  0  0  0
  130.0019  136.6808  160.7245 C   0  0  0  0  0  0  0  0  0  0  0  0
  130.3343  135.2396  160.4359 C   0  0  0  0  0  0  0  0  0  0  0  0
  130.1626  134.9752  159.0012 N   0  0  0  0  0  0  0  0  0  0  0  0
  129.2062  135.1590  158.7374 H   0  0  0  0  0  0  0  0  0  0  0  0
  130.7784  135.5749  158.4727 H   0  0  0  0  0  0  0  0  0  0  0  0
  130.4868  133.5703  158.7199 C   0  0  1  0  0  0  0  0  0  0  0  0
  131.3550  133.2505  159.2963 H   0  0  0  0  0  0  0  0  0  0  0  0
  129.2682  132.6544  159.0011 C   0  0  0  0  0  0  0  0  0  0  0  0
  129.5034  131.5084  158.1528 O   0  0  0  0  0  0  0  0  0  0  0  0
  130.0250  132.0071  156.9132 C   0  0  0  0  0  0  0  0  0  0  0  0
  130.5875  131.0543  155.8609 C   0  0  0  0  0  0  0  0  0  0  0  0
  129.2704  131.7905  155.6034 C   0  0  0  0  0  0  0  0  0  0  0  0
  130.7179  133.3493  157.2044 C   0  0  0  0  0  0  0  0  0  0  0  0
  126.5715  134.0302  162.6824 H   0  0  0  0  0  0  0  0  0  0  0  0
  125.3661  132.9857  161.8920 H   0  0  0  0  0  0  0  0  0  0  0  0
  127.0899  132.8271  161.4771 H   0  0  0  0  0  0  0  0  0  0  0  0
  125.3420  135.2665  160.9193 H   0  0  0  0  0  0  0  0  0  0  0  0
  125.8602  134.0634  159.7142 H   0  0  0  0  0  0  0  0  0  0  0  0
  130.1750  141.0647  161.3540 H   0  0  0  0  0  0  0  0  0  0  0  0
  132.5727  141.2817  160.8837 H   0  0  0  0  0  0  0  0  0  0  0  0
  134.6462  139.1115  159.2064 H   0  0  0  0  0  0  0  0  0  0  0  0
  134.2224  137.6075  162.5554 H   0  0  0  0  0  0  0  0  0  0  0  0
  135.5167  138.4656  163.4253 H   0  0  0  0  0  0  0  0  0  0  0  0
  133.9959  139.3057  163.0381 H   0  0  0  0  0  0  0  0  0  0  0  0
  135.7939  141.6379  159.2698 H   0  0  0  0  0  0  0  0  0  0  0  0
  136.6358  141.9629  160.8041 H   0  0  0  0  0  0  0  0  0  0  0  0
  136.9680  140.4618  159.9072 H   0  0  0  0  0  0  0  0  0  0  0  0
  132.8833  137.0960  160.1846 H   0  0  0  0  0  0  0  0  0  0  0  0
  131.3675  135.0410  160.7209 H   0  0  0  0  0  0  0  0  0  0  0  0
  129.6690  134.5919  161.0070 H   0  0  0  0  0  0  0  0  0  0  0  0
  129.2451  132.3580  160.0496 H   0  0  0  0  0  0  0  0  0  0  0  0
  128.3405  133.1540  158.7220 H   0  0  0  0  0  0  0  0  0  0  0  0
  131.4646  131.3818  155.3029 H   0  0  0  0  0  0  0  0  0  0  0  0
  130.5344  129.9858  156.0695 H   0  0  0  0  0  0  0  0  0  0  0  0
  128.3511  131.2062  155.6427 H   0  0  0  0  0  0  0  0  0  0  0  0
  129.2809  132.6025  154.8763 H   0  0  0  0  0  0  0  0  0  0  0  0
  130.2567  134.1505  156.6268 H   0  0  0  0  0  0  0  0  0  0  0  0
  131.7839  133.2867  156.9855 H   0  0  0  0  0  0  0  0  0  0  0  0
  1  2  1  0
  1 34  1  0
  1 35  1  0
  1 36  1  0
  2  3  1  0
  2 37  1  0
  2 38  1  0
  3  4  1  0
  4  5  2  0
  4  6  1  0
  6 21  2  0
  6  7  1  0
  7  8  1  0
  8 20  2  0
  8  9  1  0
  9 10  2  0
  9 39  1  0
 10 11  1  0
 10 40  1  0
 11 12  1  0
 11 19  2  0
 12 16  1  0
 12 13  1  0
 12 41  1  0
 13 14  1  6
 13 15  1  0
 13 16  1  0
 15 42  1  0
 15 43  1  0
 15 44  1  0
 16 17  1  1
 16 18  1  0
 18 45  1  0
 18 46  1  0
 18 47  1  0
 19 20  1  0
 19 48  1  0
 20 21  1  0
 21 22  1  0
 22 23  1  0
 22 49  1  0
 22 50  1  0
 23 24  1  0
 23 25  1  0
 23 26  1  0
 26 27  1  1
 26 33  1  0
 26 28  1  0
 28 29  1  0
 28 51  1  0
 28 52  1  0
 29 30  1  0
 30 32  1  0
 30 31  1  0
 30 33  1  0
 31 32  1  0
 31 53  1  0
 31 54  1  0
 32 55  1  0
 32 56  1  0
 33 57  1  0
 33 58  1  0
M  CHG  1  23   1
M  END
>  <DOCK_score>  (1) 
-42.573883

>  <SMILES>  (1) 
CCOC(=O)c1oc2ccc(C3[C@H](C)[C@H]3C)cc2c1C[NH2+][C@H]1COC2(CC2)C1

$$$$
