O=C1CC[C@H](NC(NCc2ncccc2C2CC2)=[NH+]C2CC2)CN1
     RDKit          3D

 50 53  0  0  1  0  0  0  0  0999 V2000
  123.8184  133.8471  161.7065 O   0  0  0  0  0  0  0  0  0  0  0  0
  125.0013  133.9463  161.4575 C   0  0  0  0  0  0  0  0  0  0  0  0
  125.9114  132.8264  161.8732 C   0  0  0  0  0  0  0  0  0  0  0  0
  127.3638  133.3098  161.8772 C   0  0  0  0  0  0  0  0  0  0  0  0
  127.6398  134.0261  160.5498 C   0  0  2  0  0  0  0  0  0  0  0  0
  127.3520  133.3813  159.7195 H   0  0  0  0  0  0  0  0  0  0  0  0
  129.0659  134.3468  160.4517 N   0  0  0  0  0  0  0  0  0  0  0  0
  129.6747  134.4033  159.2202 C   0  0  0  0  0  0  0  0  0  0  0  0
  128.9449  134.1589  158.0809 N   0  0  0  0  0  0  0  0  0  0  0  0
  129.5962  133.5766  156.9049 C   0  0  0  0  0  0  0  0  0  0  0  0
  130.1719  132.2310  157.2643 C   0  0  0  0  0  0  0  0  0  0  0  0
  130.0399  131.7731  158.4940 N   0  0  0  0  0  0  0  0  0  0  0  0
  130.5223  130.5994  158.8524 C   0  0  0  0  0  0  0  0  0  0  0  0
  131.1995  129.8065  157.9450 C   0  0  0  0  0  0  0  0  0  0  0  0
  131.3631  130.2570  156.6443 C   0  0  0  0  0  0  0  0  0  0  0  0
  130.8370  131.4939  156.3031 C   0  0  0  0  0  0  0  0  0  0  0  0
  130.9883  132.0274  154.9018 C   0  0  0  0  0  0  0  0  0  0  0  0
  129.8024  131.8586  153.9499 C   0  0  0  0  0  0  0  0  0  0  0  0
  131.0619  131.0090  153.7625 C   0  0  0  0  0  0  0  0  0  0  0  0
  130.9422  134.6937  159.1326 N   0  0  0  0  0  0  0  0  0  0  0  0
  131.3717  134.7336  158.2638 H   0  0  0  0  0  0  0  0  0  0  0  0
  131.7184  134.9599  160.3461 C   0  0  0  0  0  0  0  0  0  0  0  0
  133.2378  134.8013  160.2621 C   0  0  0  0  0  0  0  0  0  0  0  0
  132.4011  133.7699  161.0234 C   0  0  0  0  0  0  0  0  0  0  0  0
  126.8200  135.3164  160.5100 C   0  0  0  0  0  0  0  0  0  0  0  0
  125.4242  135.0440  160.8293 N   0  0  0  0  0  0  0  0  0  0  0  0
  125.8079  131.9969  161.1737 H   0  0  0  0  0  0  0  0  0  0  0  0
  125.6386  132.4907  162.8738 H   0  0  0  0  0  0  0  0  0  0  0  0
  128.0341  132.4566  161.9802 H   0  0  0  0  0  0  0  0  0  0  0  0
  127.5182  134.0006  162.7062 H   0  0  0  0  0  0  0  0  0  0  0  0
  129.5807  134.5192  161.2556 H   0  0  0  0  0  0  0  0  0  0  0  0
  127.9990  134.3720  158.0558 H   0  0  0  0  0  0  0  0  0  0  0  0
  128.8642  133.4569  156.1061 H   0  0  0  0  0  0  0  0  0  0  0  0
  130.3962  134.2361  156.5688 H   0  0  0  0  0  0  0  0  0  0  0  0
  130.3902  130.2555  159.8676 H   0  0  0  0  0  0  0  0  0  0  0  0
  131.5958  128.8478  158.2456 H   0  0  0  0  0  0  0  0  0  0  0  0
  131.8874  129.6589  155.9138 H   0  0  0  0  0  0  0  0  0  0  0  0
  131.5856  132.9341  154.8059 H   0  0  0  0  0  0  0  0  0  0  0  0
  128.9129  131.3617  154.3372 H   0  0  0  0  0  0  0  0  0  0  0  0
  129.6199  132.6539  153.2275 H   0  0  0  0  0  0  0  0  0  0  0  0
  131.7074  131.2459  152.9165 H   0  0  0  0  0  0  0  0  0  0  0  0
  131.0014  129.9532  154.0264 H   0  0  0  0  0  0  0  0  0  0  0  0
  131.3297  135.7498  160.9889 H   0  0  0  0  0  0  0  0  0  0  0  0
  133.6599  134.4987  159.3037 H   0  0  0  0  0  0  0  0  0  0  0  0
  133.8487  135.4864  160.8497 H   0  0  0  0  0  0  0  0  0  0  0  0
  132.4620  133.7771  162.1116 H   0  0  0  0  0  0  0  0  0  0  0  0
  132.2729  132.7889  160.5659 H   0  0  0  0  0  0  0  0  0  0  0  0
  127.2242  136.0227  161.2352 H   0  0  0  0  0  0  0  0  0  0  0  0
  126.8829  135.7527  159.5132 H   0  0  0  0  0  0  0  0  0  0  0  0
  124.7613  135.7024  160.5686 H   0  0  0  0  0  0  0  0  0  0  0  0
  1  2  2  0
  2 26  1  0
  2  3  1  0
  3  4  1  0
  3 27  1  0
  3 28  1  0
  4  5  1  0
  4 29  1  0
  4 30  1  0
  5  6  1  6
  5  7  1  0
  5 25  1  0
  7 31  1  0
  8  7  1  0
  8  9  1  0
  8 20  2  0
  9 10  1  0
  9 32  1  0
 10 11  1  0
 10 33  1  0
 10 34  1  0
 11 16  1  0
 11 12  2  0
 12 13  1  0
 13 14  2  0
 13 35  1  0
 14 15  1  0
 14 36  1  0
 15 16  2  0
 15 37  1  0
 16 17  1  0
 17 19  1  0
 17 18  1  0
 17 38  1  0
 18 19  1  0
 18 39  1  0
 18 40  1  0
 19 41  1  0
 19 42  1  0
 20 21  1  0
 20 22  1  0
 22 24  1  0
 22 23  1  0
 22 43  1  0
 23 24  1  0
 23 44  1  0
 23 45  1  0
 24 46  1  0
 24 47  1  0
 25 26  1  0
 25 48  1  0
 25 49  1  0
 26 50  1  0
M  CHG  1  20   1
M  END
>  <DOCK_score>  (1) 
-52.231392

>  <SMILES>  (1) 
O=C1CC[C@H](NC(NCc2ncccc2C2CC2)=[NH+]C2CC2)CN1

$$$$
