Fc1ccc([C@H]2CCC([NH+]3CC(c4cccc(NC5=CCC5)c4)C3)C2)cc1
     RDKit          3D

 55 59  0  0  1  0  0  0  0  0999 V2000
  132.3095  130.2670  152.2075 F   0  0  0  0  0  0  0  0  0  0  0  0
  131.6532  130.6511  153.3243 C   0  0  0  0  0  0  0  0  0  0  0  0
  131.5821  129.7993  154.4136 C   0  0  0  0  0  0  0  0  0  0  0  0
  130.9065  130.1913  155.5537 C   0  0  0  0  0  0  0  0  0  0  0  0
  130.3107  131.4376  155.6105 C   0  0  0  0  0  0  0  0  0  0  0  0
  129.5786  131.8660  156.8563 C   0  0  1  0  0  0  0  0  0  0  0  0
  128.5372  131.5485  156.8048 H   0  0  0  0  0  0  0  0  0  0  0  0
  130.2536  131.2598  158.0991 C   0  0  0  0  0  0  0  0  0  0  0  0
  130.7194  132.4449  158.9698 C   0  0  0  0  0  0  0  0  0  0  0  0
  129.7992  133.6152  158.5423 C   0  0  1  0  0  0  0  0  0  0  0  0
  130.4328  134.9083  158.8319 N   0  0  2  0  0  0  0  0  0  0  0  0
  131.1151  135.1762  158.1383 H   0  0  0  0  0  0  0  0  0  0  0  0
  130.9282  135.0217  160.2163 C   0  0  0  0  0  0  0  0  0  0  0  0
  130.4578  136.4840  160.2047 C   0  0  2  0  0  0  0  0  0  0  0  0
  129.8119  136.9401  161.4876 C   0  0  0  0  0  0  0  0  0  0  0  0
  130.5268  136.9058  162.6711 C   0  0  0  0  0  0  0  0  0  0  0  0
  129.9384  137.3237  163.8505 C   0  0  0  0  0  0  0  0  0  0  0  0
  128.6336  137.7771  163.8503 C   0  0  0  0  0  0  0  0  0  0  0  0
  127.9126  137.8126  162.6636 C   0  0  0  0  0  0  0  0  0  0  0  0
  126.5926  138.2702  162.6598 N   0  0  0  0  0  0  0  0  0  0  0  0
  126.1857  139.2250  163.5837 C   0  0  0  0  0  0  0  0  0  0  0  0
  125.0395  139.4711  164.1662 C   0  0  0  0  0  0  0  0  0  0  0  0
  125.5664  140.6330  164.9526 C   0  0  0  0  0  0  0  0  0  0  0  0
  126.9015  140.3426  164.2799 C   0  0  0  0  0  0  0  0  0  0  0  0
  128.5090  137.3971  161.4793 C   0  0  0  0  0  0  0  0  0  0  0  0
  129.4668  135.9772  159.1476 C   0  0  0  0  0  0  0  0  0  0  0  0
  129.6567  133.3985  157.0144 C   0  0  0  0  0  0  0  0  0  0  0  0
  130.3810  132.2888  154.5235 C   0  0  0  0  0  0  0  0  0  0  0  0
  131.0517  131.8969  153.3805 C   0  0  0  0  0  0  0  0  0  0  0  0
  132.0507  128.8272  154.3707 H   0  0  0  0  0  0  0  0  0  0  0  0
  130.8473  129.5255  156.4019 H   0  0  0  0  0  0  0  0  0  0  0  0
  129.5396  130.6487  158.6512 H   0  0  0  0  0  0  0  0  0  0  0  0
  131.1107  130.6557  157.8012 H   0  0  0  0  0  0  0  0  0  0  0  0
  130.5823  132.2185  160.0273 H   0  0  0  0  0  0  0  0  0  0  0  0
  131.7629  132.6827  158.7637 H   0  0  0  0  0  0  0  0  0  0  0  0
  128.8290  133.5433  159.0340 H   0  0  0  0  0  0  0  0  0  0  0  0
  130.3847  134.3964  160.9246 H   0  0  0  0  0  0  0  0  0  0  0  0
  132.0095  134.9134  160.3008 H   0  0  0  0  0  0  0  0  0  0  0  0
  131.1978  137.1870  159.8219 H   0  0  0  0  0  0  0  0  0  0  0  0
  131.5473  136.5520  162.6741 H   0  0  0  0  0  0  0  0  0  0  0  0
  130.4995  137.2957  164.7729 H   0  0  0  0  0  0  0  0  0  0  0  0
  128.1746  138.1034  164.7718 H   0  0  0  0  0  0  0  0  0  0  0  0
  125.9603  137.9214  162.0123 H   0  0  0  0  0  0  0  0  0  0  0  0
  124.0671  139.0055  164.1033 H   0  0  0  0  0  0  0  0  0  0  0  0
  125.1266  141.5900  164.6716 H   0  0  0  0  0  0  0  0  0  0  0  0
  125.5759  140.4671  166.0299 H   0  0  0  0  0  0  0  0  0  0  0  0
  127.6771  140.0069  164.9684 H   0  0  0  0  0  0  0  0  0  0  0  0
  127.2382  141.1341  163.6102 H   0  0  0  0  0  0  0  0  0  0  0  0
  127.9528  137.4278  160.5540 H   0  0  0  0  0  0  0  0  0  0  0  0
  129.3108  136.6777  158.3272 H   0  0  0  0  0  0  0  0  0  0  0  0
  128.5327  135.6071  159.5702 H   0  0  0  0  0  0  0  0  0  0  0  0
  130.5278  133.7922  156.4905 H   0  0  0  0  0  0  0  0  0  0  0  0
  128.7444  133.8671  156.6452 H   0  0  0  0  0  0  0  0  0  0  0  0
  129.9114  133.2604  154.5676 H   0  0  0  0  0  0  0  0  0  0  0  0
  131.1062  132.5620  152.5313 H   0  0  0  0  0  0  0  0  0  0  0  0
  1  2  1  0
  2 29  2  0
  2  3  1  0
  3  4  2  0
  3 30  1  0
  4  5  1  0
  4 31  1  0
  5  6  1  0
  5 28  2  0
  6  7  1  6
  6 27  1  0
  6  8  1  0
  8  9  1  0
  8 32  1  0
  8 33  1  0
  9 10  1  0
  9 34  1  0
  9 35  1  0
 10 11  1  0
 10 27  1  0
 10 36  1  1
 11 12  1  6
 11 26  1  0
 11 13  1  0
 13 14  1  0
 13 37  1  0
 13 38  1  0
 14 15  1  0
 14 26  1  0
 14 39  1  6
 15 25  1  0
 15 16  2  0
 16 17  1  0
 16 40  1  0
 17 18  2  0
 17 41  1  0
 18 19  1  0
 18 42  1  0
 19 20  1  0
 19 25  2  0
 20 21  1  0
 20 43  1  0
 21 24  1  0
 21 22  2  0
 22 23  1  0
 22 44  1  0
 23 24  1  0
 23 45  1  0
 23 46  1  0
 24 47  1  0
 24 48  1  0
 25 49  1  0
 26 50  1  0
 26 51  1  0
 27 52  1  0
 27 53  1  0
 28 29  1  0
 28 54  1  0
 29 55  1  0
M  CHG  1  11   1
M  END
>  <DOCK_score>  (1) 
-45.860611

>  <SMILES>  (1) 
Fc1ccc([C@H]2CCC([NH+]3CC(c4cccc(NC5=CCC5)c4)C3)C2)cc1

$$$$
