O=C1COc2cccc([C@H](O)c3ccccc3C[NH+]3CCCN(c4ccccc4)CC3)c2N1
     RDKit          3D

 63 67  0  0  1  0  0  0  0  0999 V2000
  128.0628  139.0949  161.7136 O   0  0  0  0  0  0  0  0  0  0  0  0
  128.3185  138.0859  162.3362 C   0  0  0  0  0  0  0  0  0  0  0  0
  129.4810  138.0628  163.2958 C   0  0  0  0  0  0  0  0  0  0  0  0
  129.1948  137.1705  164.3758 O   0  0  0  0  0  0  0  0  0  0  0  0
  128.6872  135.9530  164.0448 C   0  0  0  0  0  0  0  0  0  0  0  0
  128.9859  134.8340  164.8021 C   0  0  0  0  0  0  0  0  0  0  0  0
  128.4618  133.6035  164.4495 C   0  0  0  0  0  0  0  0  0  0  0  0
  127.6357  133.4882  163.3467 C   0  0  0  0  0  0  0  0  0  0  0  0
  127.3369  134.6010  162.5819 C   0  0  0  0  0  0  0  0  0  0  0  0
  126.4411  134.4714  161.3770 C   0  0  2  0  0  0  0  0  0  0  0  0
  126.7198  135.2197  160.6350 H   0  0  0  0  0  0  0  0  0  0  0  0
  125.0820  134.6735  161.7700 O   0  0  0  0  0  0  0  0  0  0  0  0
  126.5930  133.0946  160.7836 C   0  0  0  0  0  0  0  0  0  0  0  0
  125.7779  132.0634  161.2122 C   0  0  0  0  0  0  0  0  0  0  0  0
  125.9172  130.8005  160.6679 C   0  0  0  0  0  0  0  0  0  0  0  0
  126.8713  130.5687  159.6947 C   0  0  0  0  0  0  0  0  0  0  0  0
  127.6823  131.6010  159.2621 C   0  0  0  0  0  0  0  0  0  0  0  0
  127.5467  132.8628  159.8105 C   0  0  0  0  0  0  0  0  0  0  0  0
  128.4349  133.9870  159.3431 C   0  0  0  0  0  0  0  0  0  0  0  0
  129.8233  133.5138  159.2644 N   0  0  2  0  0  0  0  0  0  0  0  0
  129.8665  132.7475  158.6095 H   0  0  0  0  0  0  0  0  0  0  0  0
  130.2361  133.0244  160.5979 C   0  0  0  0  0  0  0  0  0  0  0  0
  131.7317  132.8974  160.7451 C   0  0  0  0  0  0  0  0  0  0  0  0
  132.2830  134.2055  161.3591 C   0  0  0  0  0  0  0  0  0  0  0  0
  132.3242  135.2354  160.4126 N   0  0  0  0  0  0  0  0  0  0  0  0
  132.9854  136.3559  160.9205 C   0  0  0  0  0  0  0  0  0  0  0  0
  132.9497  136.6274  162.2824 C   0  0  0  0  0  0  0  0  0  0  0  0
  133.6086  137.7337  162.7819 C   0  0  0  0  0  0  0  0  0  0  0  0
  134.2948  138.5763  161.9261 C   0  0  0  0  0  0  0  0  0  0  0  0
  134.3278  138.3120  160.5696 C   0  0  0  0  0  0  0  0  0  0  0  0
  133.6755  137.2046  160.0642 C   0  0  0  0  0  0  0  0  0  0  0  0
  131.0087  135.6064  159.8503 C   0  0  0  0  0  0  0  0  0  0  0  0
  130.6727  134.6133  158.7662 C   0  0  0  0  0  0  0  0  0  0  0  0
  127.8588  135.8359  162.9298 C   0  0  0  0  0  0  0  0  0  0  0  0
  127.5632  136.9780  162.1721 N   0  0  0  0  0  0  0  0  0  0  0  0
  129.6474  139.0660  163.6885 H   0  0  0  0  0  0  0  0  0  0  0  0
  130.3762  137.7252  162.7735 H   0  0  0  0  0  0  0  0  0  0  0  0
  129.6267  134.9213  165.6670 H   0  0  0  0  0  0  0  0  0  0  0  0
  128.6951  132.7301  165.0405 H   0  0  0  0  0  0  0  0  0  0  0  0
  127.2262  132.5253  163.0790 H   0  0  0  0  0  0  0  0  0  0  0  0
  124.9107  135.5412  162.1611 H   0  0  0  0  0  0  0  0  0  0  0  0
  125.0325  132.2445  161.9725 H   0  0  0  0  0  0  0  0  0  0  0  0
  125.2810  129.9948  161.0032 H   0  0  0  0  0  0  0  0  0  0  0  0
  126.9804  129.5818  159.2696 H   0  0  0  0  0  0  0  0  0  0  0  0
  128.4245  131.4209  158.4986 H   0  0  0  0  0  0  0  0  0  0  0  0
  128.3731  134.8160  160.0481 H   0  0  0  0  0  0  0  0  0  0  0  0
  128.1089  134.3222  158.3585 H   0  0  0  0  0  0  0  0  0  0  0  0
  129.8667  133.7164  161.3548 H   0  0  0  0  0  0  0  0  0  0  0  0
  129.7845  132.0470  160.7677 H   0  0  0  0  0  0  0  0  0  0  0  0
  132.1838  132.7339  159.7668 H   0  0  0  0  0  0  0  0  0  0  0  0
  131.9637  132.0591  161.4020 H   0  0  0  0  0  0  0  0  0  0  0  0
  133.2905  134.0260  161.7347 H   0  0  0  0  0  0  0  0  0  0  0  0
  131.6425  134.5081  162.1875 H   0  0  0  0  0  0  0  0  0  0  0  0
  132.4104  135.9722  162.9502 H   0  0  0  0  0  0  0  0  0  0  0  0
  133.5845  137.9430  163.8411 H   0  0  0  0  0  0  0  0  0  0  0  0
  134.8061  139.4429  162.3189 H   0  0  0  0  0  0  0  0  0  0  0  0
  134.8642  138.9724  159.9044 H   0  0  0  0  0  0  0  0  0  0  0  0
  133.7021  136.9984  159.0043 H   0  0  0  0  0  0  0  0  0  0  0  0
  130.2499  135.5701  160.6319 H   0  0  0  0  0  0  0  0  0  0  0  0
  131.0572  136.6108  159.4296 H   0  0  0  0  0  0  0  0  0  0  0  0
  130.1479  135.1302  157.9628 H   0  0  0  0  0  0  0  0  0  0  0  0
  131.5980  134.1945  158.3705 H   0  0  0  0  0  0  0  0  0  0  0  0
  126.8279  136.9726  161.5396 H   0  0  0  0  0  0  0  0  0  0  0  0
  1  2  2  0
  2 35  1  0
  2  3  1  0
  3  4  1  0
  3 36  1  0
  3 37  1  0
  4  5  1  0
  5 34  2  0
  5  6  1  0
  6  7  2  0
  6 38  1  0
  7  8  1  0
  7 39  1  0
  8  9  2  0
  8 40  1  0
  9 10  1  0
  9 34  1  0
 10 11  1  6
 10 12  1  0
 10 13  1  0
 12 41  1  0
 13 18  1  0
 13 14  2  0
 14 15  1  0
 14 42  1  0
 15 16  2  0
 15 43  1  0
 16 17  1  0
 16 44  1  0
 17 18  2  0
 17 45  1  0
 18 19  1  0
 19 20  1  0
 19 46  1  0
 19 47  1  0
 20 21  1  6
 20 33  1  0
 20 22  1  0
 22 23  1  0
 22 48  1  0
 22 49  1  0
 23 24  1  0
 23 50  1  0
 23 51  1  0
 24 25  1  0
 24 52  1  0
 24 53  1  0
 25 26  1  0
 25 32  1  0
 26 31  1  0
 26 27  2  0
 27 28  1  0
 27 54  1  0
 28 29  2  0
 28 55  1  0
 29 30  1  0
 29 56  1  0
 30 31  2  0
 30 57  1  0
 31 58  1  0
 32 33  1  0
 32 59  1  0
 32 60  1  0
 33 61  1  0
 33 62  1  0
 34 35  1  0
 35 63  1  0
M  CHG  1  20   1
M  END
>  <DOCK_score>  (1) 
-43.228439

>  <SMILES>  (1) 
O=C1COc2cccc([C@H](O)c3ccccc3C[NH+]3CCCN(c4ccccc4)CC3)c2N1

$$$$
