Nc1ccc(-c2c[nH]c(N[C@@H](Cc3ccccn3)C(=O)NC3CC=CC3)[nH+]2)cc1
     RDKit          3D

 54 57  0  0  1  0  0  0  0  0999 V2000
  131.0688  129.4122  150.7810 N   0  0  0  0  0  0  0  0  0  0  0  0
  130.9618  129.9874  152.0496 C   0  0  0  0  0  0  0  0  0  0  0  0
  130.2663  131.1801  152.2136 C   0  0  0  0  0  0  0  0  0  0  0  0
  130.1595  131.7503  153.4646 C   0  0  0  0  0  0  0  0  0  0  0  0
  130.7492  131.1299  154.5649 C   0  0  0  0  0  0  0  0  0  0  0  0
  130.6361  131.7417  155.9117 C   0  0  0  0  0  0  0  0  0  0  0  0
  130.0620  131.1734  157.0006 C   0  0  0  0  0  0  0  0  0  0  0  0
  130.1746  132.0789  158.0289 N   0  0  0  0  0  0  0  0  0  0  0  0
  129.8565  131.9592  158.9375 H   0  0  0  0  0  0  0  0  0  0  0  0
  130.8146  133.1742  157.5367 C   0  0  0  0  0  0  0  0  0  0  0  0
  131.1250  134.3169  158.2540 N   0  0  0  0  0  0  0  0  0  0  0  0
  130.7591  134.4156  159.6691 C   0  0  1  0  0  0  0  0  0  0  0  0
  131.2446  133.6147  160.2266 H   0  0  0  0  0  0  0  0  0  0  0  0
  131.2134  135.7687  160.2203 C   0  0  0  0  0  0  0  0  0  0  0  0
  131.2965  135.6966  161.7232 C   0  0  0  0  0  0  0  0  0  0  0  0
  131.0691  136.8338  162.4752 C   0  0  0  0  0  0  0  0  0  0  0  0
  131.1438  136.7559  163.8574 C   0  0  0  0  0  0  0  0  0  0  0  0
  131.4557  135.5335  164.4335 C   0  0  0  0  0  0  0  0  0  0  0  0
  131.6698  134.4393  163.6171 C   0  0  0  0  0  0  0  0  0  0  0  0
  131.5860  134.5495  162.3057 N   0  0  0  0  0  0  0  0  0  0  0  0
  129.2639  134.2915  159.8112 C   0  0  0  0  0  0  0  0  0  0  0  0
  128.5345  135.0907  159.2635 O   0  0  0  0  0  0  0  0  0  0  0  0
  128.7375  133.2925  160.5469 N   0  0  0  0  0  0  0  0  0  0  0  0
  127.2840  133.1720  160.6852 C   0  0  0  0  0  0  0  0  0  0  0  0
  126.9058  131.9036  161.4848 C   0  0  0  0  0  0  0  0  0  0  0  0
  125.6528  131.3876  160.8161 C   0  0  0  0  0  0  0  0  0  0  0  0
  125.4961  131.9215  159.6354 C   0  0  0  0  0  0  0  0  0  0  0  0
  126.6185  132.8827  159.3198 C   0  0  0  0  0  0  0  0  0  0  0  0
  131.0836  132.9713  156.2700 N   0  0  0  0  0  0  0  0  0  0  0  0
  131.5329  133.5993  155.6829 H   0  0  0  0  0  0  0  0  0  0  0  0
  131.4501  129.9367  154.3969 C   0  0  0  0  0  0  0  0  0  0  0  0
  131.5498  129.3674  153.1450 C   0  0  0  0  0  0  0  0  0  0  0  0
  130.6582  129.8445  150.0159 H   0  0  0  0  0  0  0  0  0  0  0  0
  131.5538  128.5802  150.6655 H   0  0  0  0  0  0  0  0  0  0  0  0
  129.8095  131.6604  151.3610 H   0  0  0  0  0  0  0  0  0  0  0  0
  129.6192  132.6767  153.5919 H   0  0  0  0  0  0  0  0  0  0  0  0
  129.6037  130.1967  157.0505 H   0  0  0  0  0  0  0  0  0  0  0  0
  131.5849  135.0522  157.8195 H   0  0  0  0  0  0  0  0  0  0  0  0
  130.4963  136.5374  159.9323 H   0  0  0  0  0  0  0  0  0  0  0  0
  132.1940  136.0158  159.8134 H   0  0  0  0  0  0  0  0  0  0  0  0
  130.8329  137.7706  161.9924 H   0  0  0  0  0  0  0  0  0  0  0  0
  130.9672  137.6271  164.4706 H   0  0  0  0  0  0  0  0  0  0  0  0
  131.5257  135.4371  165.5069 H   0  0  0  0  0  0  0  0  0  0  0  0
  131.9091  133.4831  164.0583 H   0  0  0  0  0  0  0  0  0  0  0  0
  129.3210  132.6533  160.9849 H   0  0  0  0  0  0  0  0  0  0  0  0
  126.8616  134.0656  161.1449 H   0  0  0  0  0  0  0  0  0  0  0  0
  127.7028  131.1628  161.4209 H   0  0  0  0  0  0  0  0  0  0  0  0
  126.7040  132.1570  162.5255 H   0  0  0  0  0  0  0  0  0  0  0  0
  124.9756  130.6713  161.2574 H   0  0  0  0  0  0  0  0  0  0  0  0
  124.6722  131.7050  158.9716 H   0  0  0  0  0  0  0  0  0  0  0  0
  126.2215  133.8017  158.8885 H   0  0  0  0  0  0  0  0  0  0  0  0
  127.3337  132.4209  158.6389 H   0  0  0  0  0  0  0  0  0  0  0  0
  131.9112  129.4564  155.2473 H   0  0  0  0  0  0  0  0  0  0  0  0
  132.0893  128.4408  153.0150 H   0  0  0  0  0  0  0  0  0  0  0  0
  1  2  1  0
  1 33  1  0
  1 34  1  0
  2 32  2  0
  2  3  1  0
  3  4  2  0
  3 35  1  0
  4  5  1  0
  4 36  1  0
  5  6  1  0
  5 31  2  0
  6 29  1  0
  6  7  2  0
  7  8  1  0
  7 37  1  0
  8  9  1  0
  8 10  1  0
 10 11  1  0
 10 29  2  0
 11 12  1  0
 11 38  1  0
 12 13  1  1
 12 14  1  0
 12 21  1  0
 14 15  1  0
 14 39  1  0
 14 40  1  0
 15 20  1  0
 15 16  2  0
 16 17  1  0
 16 41  1  0
 17 18  2  0
 17 42  1  0
 18 19  1  0
 18 43  1  0
 19 20  2  0
 19 44  1  0
 21 22  2  0
 21 23  1  0
 23 24  1  0
 23 45  1  0
 24 28  1  0
 24 25  1  0
 24 46  1  0
 25 26  1  0
 25 47  1  0
 25 48  1  0
 26 27  2  0
 26 49  1  0
 27 28  1  0
 27 50  1  0
 28 51  1  0
 28 52  1  0
 29 30  1  0
 31 32  1  0
 31 53  1  0
 32 54  1  0
M  CHG  1  29   1
M  END
>  <DOCK_score>  (1) 
-60.217812

>  <SMILES>  (1) 
Nc1ccc(-c2c[nH]c(N[C@@H](Cc3ccccn3)C(=O)NC3CC=CC3)[nH+]2)cc1

$$$$
