Nc1ccc(-c2c[nH]c(N[C@@H](c3ccccc3)c3ccc(O)cc3)[nH+]2)cc1
     RDKit          3D

 48 51  0  0  1  0  0  0  0  0999 V2000
  131.1124  129.4569  152.0596 N   0  0  0  0  0  0  0  0  0  0  0  0
  130.8991  130.1695  153.2421 C   0  0  0  0  0  0  0  0  0  0  0  0
  130.1321  131.3290  153.2248 C   0  0  0  0  0  0  0  0  0  0  0  0
  129.9199  132.0336  154.3910 C   0  0  0  0  0  0  0  0  0  0  0  0
  130.4752  131.5828  155.5875 C   0  0  0  0  0  0  0  0  0  0  0  0
  130.2488  132.3395  156.8432 C   0  0  0  0  0  0  0  0  0  0  0  0
  129.6504  131.8651  157.9637 C   0  0  0  0  0  0  0  0  0  0  0  0
  129.6441  132.8923  158.8776 N   0  0  0  0  0  0  0  0  0  0  0  0
  129.2797  132.8599  159.7760 H   0  0  0  0  0  0  0  0  0  0  0  0
  130.2442  133.9624  158.2891 C   0  0  0  0  0  0  0  0  0  0  0  0
  130.4391  135.2011  158.8759 N   0  0  0  0  0  0  0  0  0  0  0  0
  129.9819  135.4424  160.2467 C   0  0  1  0  0  0  0  0  0  0  0  0
  130.4811  134.7488  160.9235 H   0  0  0  0  0  0  0  0  0  0  0  0
  130.3122  136.8578  160.6447 C   0  0  0  0  0  0  0  0  0  0  0  0
  130.5648  137.1623  161.9692 C   0  0  0  0  0  0  0  0  0  0  0  0
  130.8721  138.4598  162.3337 C   0  0  0  0  0  0  0  0  0  0  0  0
  130.9178  139.4547  161.3750 C   0  0  0  0  0  0  0  0  0  0  0  0
  130.6598  139.1512  160.0512 C   0  0  0  0  0  0  0  0  0  0  0  0
  130.3568  137.8528  159.6862 C   0  0  0  0  0  0  0  0  0  0  0  0
  128.4914  135.2338  160.3232 C   0  0  0  0  0  0  0  0  0  0  0  0
  127.7018  135.4842  159.2161 C   0  0  0  0  0  0  0  0  0  0  0  0
  126.3360  135.2883  159.2820 C   0  0  0  0  0  0  0  0  0  0  0  0
  125.7552  134.8510  160.4635 C   0  0  0  0  0  0  0  0  0  0  0  0
  124.4111  134.6625  160.5323 O   0  0  0  0  0  0  0  0  0  0  0  0
  126.5489  134.6060  161.5747 C   0  0  0  0  0  0  0  0  0  0  0  0
  127.9150  134.7979  161.5020 C   0  0  0  0  0  0  0  0  0  0  0  0
  130.6070  133.6272  157.0749 N   0  0  0  0  0  0  0  0  0  0  0  0
  131.0562  134.2086  156.4416 H   0  0  0  0  0  0  0  0  0  0  0  0
  131.2484  130.4230  155.6012 C   0  0  0  0  0  0  0  0  0  0  0  0
  131.4537  129.7186  154.4336 C   0  0  0  0  0  0  0  0  0  0  0  0
  130.7253  129.7716  151.2271 H   0  0  0  0  0  0  0  0  0  0  0  0
  131.6474  128.6485  152.0703 H   0  0  0  0  0  0  0  0  0  0  0  0
  129.7024  131.6782  152.2976 H   0  0  0  0  0  0  0  0  0  0  0  0
  129.3236  132.9341  154.3774 H   0  0  0  0  0  0  0  0  0  0  0  0
  129.2509  130.8723  158.1088 H   0  0  0  0  0  0  0  0  0  0  0  0
  130.8783  135.9092  158.3795 H   0  0  0  0  0  0  0  0  0  0  0  0
  130.5255  136.3858  162.7188 H   0  0  0  0  0  0  0  0  0  0  0  0
  131.0739  138.6968  163.3678 H   0  0  0  0  0  0  0  0  0  0  0  0
  131.1553  140.4689  161.6600 H   0  0  0  0  0  0  0  0  0  0  0  0
  130.6955  139.9284  159.3022 H   0  0  0  0  0  0  0  0  0  0  0  0
  130.1554  137.6157  158.6519 H   0  0  0  0  0  0  0  0  0  0  0  0
  128.1539  135.8288  158.2979 H   0  0  0  0  0  0  0  0  0  0  0  0
  125.7200  135.4799  158.4156 H   0  0  0  0  0  0  0  0  0  0  0  0
  123.9437  134.8588  159.7087 H   0  0  0  0  0  0  0  0  0  0  0  0
  126.0991  134.2658  162.4956 H   0  0  0  0  0  0  0  0  0  0  0  0
  128.5335  134.6069  162.3666 H   0  0  0  0  0  0  0  0  0  0  0  0
  131.6833  130.0743  156.5261 H   0  0  0  0  0  0  0  0  0  0  0  0
  132.0490  128.8176  154.4446 H   0  0  0  0  0  0  0  0  0  0  0  0
  1  2  1  0
  1 31  1  0
  1 32  1  0
  2 30  2  0
  2  3  1  0
  3  4  2  0
  3 33  1  0
  4  5  1  0
  4 34  1  0
  5  6  1  0
  5 29  2  0
  6 27  1  0
  6  7  2  0
  7  8  1  0
  7 35  1  0
  8  9  1  0
  8 10  1  0
 10 11  1  0
 10 27  2  0
 11 12  1  0
 11 36  1  0
 12 13  1  1
 12 14  1  0
 12 20  1  0
 14 19  1  0
 14 15  2  0
 15 16  1  0
 15 37  1  0
 16 17  2  0
 16 38  1  0
 17 18  1  0
 17 39  1  0
 18 19  2  0
 18 40  1  0
 19 41  1  0
 20 26  1  0
 20 21  2  0
 21 22  1  0
 21 42  1  0
 22 23  2  0
 22 43  1  0
 23 24  1  0
 23 25  1  0
 24 44  1  0
 25 26  2  0
 25 45  1  0
 26 46  1  0
 27 28  1  0
 29 30  1  0
 29 47  1  0
 30 48  1  0
M  CHG  1  27   1
M  END
>  <DOCK_score>  (1) 
-56.012215

>  <SMILES>  (1) 
Nc1ccc(-c2c[nH]c(N[C@@H](c3ccccc3)c3ccc(O)cc3)[nH+]2)cc1

$$$$
