C[C@](CNc1ccc(Oc2ccc(O)cc2)cc1)([NH2+]Cc1cccc2c1NC(=O)CO2)c1ccccc1
     RDKit          3D

 67 71  0  0  1  0  0  0  0  0999 V2000
  129.1338  137.0323  159.1859 C   0  0  0  0  0  0  0  0  0  0  0  0
  129.6397  135.7991  159.9372 C   0  0  2  0  0  0  0  0  0  0  0  0
  130.6908  136.2237  160.9647 C   0  0  0  0  0  0  0  0  0  0  0  0
  131.8114  136.8710  160.2782 N   0  0  0  0  0  0  0  0  0  0  0  0
  132.9018  137.3474  161.0142 C   0  0  0  0  0  0  0  0  0  0  0  0
  133.7468  138.3027  160.4647 C   0  0  0  0  0  0  0  0  0  0  0  0
  134.8230  138.7721  161.1916 C   0  0  0  0  0  0  0  0  0  0  0  0
  135.0601  138.2898  162.4706 C   0  0  0  0  0  0  0  0  0  0  0  0
  136.1200  138.7524  163.1857 O   0  0  0  0  0  0  0  0  0  0  0  0
  135.9166  139.0784  164.4900 C   0  0  0  0  0  0  0  0  0  0  0  0
  136.8233  138.6690  165.4568 C   0  0  0  0  0  0  0  0  0  0  0  0
  136.6169  139.0005  166.7816 C   0  0  0  0  0  0  0  0  0  0  0  0
  135.5030  139.7428  167.1454 C   0  0  0  0  0  0  0  0  0  0  0  0
  135.2999  140.0691  168.4497 O   0  0  0  0  0  0  0  0  0  0  0  0
  134.5934  140.1473  166.1796 C   0  0  0  0  0  0  0  0  0  0  0  0
  134.8026  139.8208  164.8539 C   0  0  0  0  0  0  0  0  0  0  0  0
  134.2197  137.3313  163.0181 C   0  0  0  0  0  0  0  0  0  0  0  0
  133.1397  136.8650  162.2945 C   0  0  0  0  0  0  0  0  0  0  0  0
  130.2398  134.8567  158.9834 N   0  0  0  0  0  0  0  0  0  0  0  0
  130.7705  135.3680  158.2942 H   0  0  0  0  0  0  0  0  0  0  0  0
  130.8508  134.2228  159.4762 H   0  0  0  0  0  0  0  0  0  0  0  0
  129.1775  134.0928  158.3157 C   0  0  0  0  0  0  0  0  0  0  0  0
  129.7931  133.1261  157.3372 C   0  0  0  0  0  0  0  0  0  0  0  0
  130.0128  133.5110  156.0267 C   0  0  0  0  0  0  0  0  0  0  0  0
  130.5811  132.6273  155.1283 C   0  0  0  0  0  0  0  0  0  0  0  0
  130.9253  131.3490  155.5307 C   0  0  0  0  0  0  0  0  0  0  0  0
  130.7042  130.9552  156.8384 C   0  0  0  0  0  0  0  0  0  0  0  0
  130.1352  131.8481  157.7459 C   0  0  0  0  0  0  0  0  0  0  0  0
  129.9159  131.4355  159.0678 N   0  0  0  0  0  0  0  0  0  0  0  0
  130.5330  130.3207  159.5165 C   0  0  0  0  0  0  0  0  0  0  0  0
  130.3336  129.9275  160.6465 O   0  0  0  0  0  0  0  0  0  0  0  0
  131.4699  129.5670  158.6072 C   0  0  0  0  0  0  0  0  0  0  0  0
  131.0369  129.7030  157.2513 O   0  0  0  0  0  0  0  0  0  0  0  0
  128.4870  135.1333  160.6434 C   0  0  0  0  0  0  0  0  0  0  0  0
  127.2147  135.6643  160.5423 C   0  0  0  0  0  0  0  0  0  0  0  0
  126.1564  135.0506  161.1861 C   0  0  0  0  0  0  0  0  0  0  0  0
  126.3723  133.9121  161.9398 C   0  0  0  0  0  0  0  0  0  0  0  0
  127.6454  133.3840  162.0452 C   0  0  0  0  0  0  0  0  0  0  0  0
  128.7028  133.9947  161.3971 C   0  0  0  0  0  0  0  0  0  0  0  0
  129.9675  137.5139  158.6750 H   0  0  0  0  0  0  0  0  0  0  0  0
  128.3849  136.7299  158.4538 H   0  0  0  0  0  0  0  0  0  0  0  0
  128.6884  137.7316  159.8935 H   0  0  0  0  0  0  0  0  0  0  0  0
  131.0512  135.3452  161.4999 H   0  0  0  0  0  0  0  0  0  0  0  0
  130.2454  136.9230  161.6723 H   0  0  0  0  0  0  0  0  0  0  0  0
  131.7974  136.9692  159.3132 H   0  0  0  0  0  0  0  0  0  0  0  0
  133.5625  138.6781  159.4690 H   0  0  0  0  0  0  0  0  0  0  0  0
  135.4805  139.5147  160.7643 H   0  0  0  0  0  0  0  0  0  0  0  0
  137.6908  138.0915  165.1735 H   0  0  0  0  0  0  0  0  0  0  0  0
  137.3226  138.6815  167.5344 H   0  0  0  0  0  0  0  0  0  0  0  0
  134.4981  140.5869  168.6054 H   0  0  0  0  0  0  0  0  0  0  0  0
  133.7236  140.7211  166.4636 H   0  0  0  0  0  0  0  0  0  0  0  0
  134.0964  140.1391  164.1014 H   0  0  0  0  0  0  0  0  0  0  0  0
  134.4074  136.9530  164.0121 H   0  0  0  0  0  0  0  0  0  0  0  0
  132.4829  136.1221  162.7226 H   0  0  0  0  0  0  0  0  0  0  0  0
  128.6041  133.5405  159.0602 H   0  0  0  0  0  0  0  0  0  0  0  0
  128.5173  134.7776  157.7833 H   0  0  0  0  0  0  0  0  0  0  0  0
  129.7429  134.5061  155.7055 H   0  0  0  0  0  0  0  0  0  0  0  0
  130.7534  132.9346  154.1074 H   0  0  0  0  0  0  0  0  0  0  0  0
  131.3660  130.6602  154.8254 H   0  0  0  0  0  0  0  0  0  0  0  0
  129.3303  131.9429  159.6513 H   0  0  0  0  0  0  0  0  0  0  0  0
  132.4771  129.9711  158.7087 H   0  0  0  0  0  0  0  0  0  0  0  0
  131.4730  128.5125  158.8831 H   0  0  0  0  0  0  0  0  0  0  0  0
  127.0468  136.5563  159.9571 H   0  0  0  0  0  0  0  0  0  0  0  0
  125.1618  135.4634  161.1040 H   0  0  0  0  0  0  0  0  0  0  0  0
  125.5463  133.4353  162.4464 H   0  0  0  0  0  0  0  0  0  0  0  0
  127.8141  132.4947  162.6343 H   0  0  0  0  0  0  0  0  0  0  0  0
  129.6976  133.5824  161.4797 H   0  0  0  0  0  0  0  0  0  0  0  0
  1 40  1  0
  1 41  1  0
  1 42  1  0
  2  1  1  6
  2  3  1  0
  2 19  1  0
  2 34  1  0
  3  4  1  0
  3 43  1  0
  3 44  1  0
  4  5  1  0
  4 45  1  0
  5 18  1  0
  5  6  2  0
  6  7  1  0
  6 46  1  0
  7  8  2  0
  7 47  1  0
  8  9  1  0
  8 17  1  0
  9 10  1  0
 10 16  1  0
 10 11  2  0
 11 12  1  0
 11 48  1  0
 12 13  2  0
 12 49  1  0
 13 14  1  0
 13 15  1  0
 14 50  1  0
 15 16  2  0
 15 51  1  0
 16 52  1  0
 17 18  2  0
 17 53  1  0
 18 54  1  0
 19 20  1  0
 19 21  1  0
 19 22  1  0
 22 23  1  0
 22 55  1  0
 22 56  1  0
 23 28  1  0
 23 24  2  0
 24 25  1  0
 24 57  1  0
 25 26  2  0
 25 58  1  0
 26 27  1  0
 26 59  1  0
 27 33  1  0
 27 28  2  0
 28 29  1  0
 29 30  1  0
 29 60  1  0
 30 31  2  0
 30 32  1  0
 32 33  1  0
 32 61  1  0
 32 62  1  0
 34 39  1  0
 34 35  2  0
 35 36  1  0
 35 63  1  0
 36 37  2  0
 36 64  1  0
 37 38  1  0
 37 65  1  0
 38 39  2  0
 38 66  1  0
 39 67  1  0
M  CHG  1  19   1
M  END
>  <DOCK_score>  (1) 
-57.517365

>  <SMILES>  (1) 
C[C@](CNc1ccc(Oc2ccc(O)cc2)cc1)([NH2+]Cc1cccc2c1NC(=O)CO2)c1ccccc1

$$$$
