FC(F)CCC=C1C=C([NH2+]C(Cc2ccccc2)Cc2ccccc2)CCC1
     RDKit          3D

 58 60  0  0  0  0  0  0  0  0999 V2000
  134.8377  139.9720  160.6158 F   0  0  0  0  0  0  0  0  0  0  0  0
  135.7121  139.2154  161.4034 C   0  0  0  0  0  0  0  0  0  0  0  0
  136.5125  140.0723  162.1664 F   0  0  0  0  0  0  0  0  0  0  0  0
  134.9049  138.3081  162.3340 C   0  0  0  0  0  0  0  0  0  0  0  0
  134.0297  137.3709  161.4994 C   0  0  0  0  0  0  0  0  0  0  0  0
  133.2344  136.4771  162.4161 C   0  0  0  0  0  0  0  0  0  0  0  0
  132.4005  135.5769  161.9069 C   0  0  0  0  0  0  0  0  0  0  0  0
  132.1274  135.5222  160.4580 C   0  0  0  0  0  0  0  0  0  0  0  0
  131.4783  134.4970  159.9346 C   0  0  0  0  0  0  0  0  0  0  0  0
  131.2526  134.4881  158.5550 N   0  0  0  0  0  0  0  0  0  0  0  0
  131.6465  135.3213  158.1443 H   0  0  0  0  0  0  0  0  0  0  0  0
  131.6887  133.6741  158.1482 H   0  0  0  0  0  0  0  0  0  0  0  0
  129.8072  134.4503  158.2955 C   0  0  0  0  0  0  0  0  0  0  0  0
  129.2245  135.8567  158.4487 C   0  0  0  0  0  0  0  0  0  0  0  0
  127.7372  135.7626  158.6727 C   0  0  0  0  0  0  0  0  0  0  0  0
  126.8734  135.7786  157.5936 C   0  0  0  0  0  0  0  0  0  0  0  0
  125.5094  135.6875  157.7988 C   0  0  0  0  0  0  0  0  0  0  0  0
  125.0087  135.5903  159.0836 C   0  0  0  0  0  0  0  0  0  0  0  0
  125.8723  135.5800  160.1630 C   0  0  0  0  0  0  0  0  0  0  0  0
  127.2365  135.6659  159.9575 C   0  0  0  0  0  0  0  0  0  0  0  0
  129.5576  133.9470  156.8724 C   0  0  0  0  0  0  0  0  0  0  0  0
  130.1316  132.5617  156.7216 C   0  0  0  0  0  0  0  0  0  0  0  0
  130.5925  132.1348  155.4902 C   0  0  0  0  0  0  0  0  0  0  0  0
  131.1232  130.8659  155.3530 C   0  0  0  0  0  0  0  0  0  0  0  0
  131.1840  130.0202  156.4448 C   0  0  0  0  0  0  0  0  0  0  0  0
  130.7178  130.4451  157.6749 C   0  0  0  0  0  0  0  0  0  0  0  0
  130.1918  131.7160  157.8133 C   0  0  0  0  0  0  0  0  0  0  0  0
  130.9713  133.3429  160.7470 C   0  0  0  0  0  0  0  0  0  0  0  0
  131.7316  133.2189  162.0665 C   0  0  0  0  0  0  0  0  0  0  0  0
  131.6959  134.5706  162.7940 C   0  0  0  0  0  0  0  0  0  0  0  0
  136.3448  138.6046  160.7594 H   0  0  0  0  0  0  0  0  0  0  0  0
  134.2720  138.9189  162.9780 H   0  0  0  0  0  0  0  0  0  0  0  0
  135.5861  137.7186  162.9476 H   0  0  0  0  0  0  0  0  0  0  0  0
  134.6625  136.7601  160.8555 H   0  0  0  0  0  0  0  0  0  0  0  0
  133.3483  137.9603  160.8858 H   0  0  0  0  0  0  0  0  0  0  0  0
  133.3426  136.5685  163.4867 H   0  0  0  0  0  0  0  0  0  0  0  0
  132.4571  136.3291  159.8203 H   0  0  0  0  0  0  0  0  0  0  0  0
  129.3276  133.7788  159.0077 H   0  0  0  0  0  0  0  0  0  0  0  0
  129.6897  136.3518  159.3011 H   0  0  0  0  0  0  0  0  0  0  0  0
  129.4200  136.4315  157.5435 H   0  0  0  0  0  0  0  0  0  0  0  0
  127.2644  135.8587  156.5900 H   0  0  0  0  0  0  0  0  0  0  0  0
  124.8347  135.6959  156.9555 H   0  0  0  0  0  0  0  0  0  0  0  0
  123.9428  135.5229  159.2442 H   0  0  0  0  0  0  0  0  0  0  0  0
  125.4811  135.5044  161.1669 H   0  0  0  0  0  0  0  0  0  0  0  0
  127.9112  135.6578  160.8008 H   0  0  0  0  0  0  0  0  0  0  0  0
  128.4851  133.9188  156.6798 H   0  0  0  0  0  0  0  0  0  0  0  0
  130.0371  134.6185  156.1602 H   0  0  0  0  0  0  0  0  0  0  0  0
  130.5413  132.7941  154.6363 H   0  0  0  0  0  0  0  0  0  0  0  0
  131.4872  130.5338  154.3919 H   0  0  0  0  0  0  0  0  0  0  0  0
  131.5953  129.0274  156.3367 H   0  0  0  0  0  0  0  0  0  0  0  0
  130.7650  129.7843  158.5278 H   0  0  0  0  0  0  0  0  0  0  0  0
  129.8277  132.0479  158.7743 H   0  0  0  0  0  0  0  0  0  0  0  0
  131.0946  132.4227  160.1759 H   0  0  0  0  0  0  0  0  0  0  0  0
  129.9123  133.4922  160.9577 H   0  0  0  0  0  0  0  0  0  0  0  0
  132.7661  132.9398  161.8662 H   0  0  0  0  0  0  0  0  0  0  0  0
  131.2623  132.4572  162.6890 H   0  0  0  0  0  0  0  0  0  0  0  0
  132.2143  134.4916  163.7496 H   0  0  0  0  0  0  0  0  0  0  0  0
  130.6626  134.8779  162.9556 H   0  0  0  0  0  0  0  0  0  0  0  0
  1  2  1  0
  2  3  1  0
  2  4  1  0
  2 31  1  0
  4  5  1  0
  4 32  1  0
  4 33  1  0
  5  6  1  0
  5 34  1  0
  5 35  1  0
  6  7  2  0
  6 36  1  0
  7 30  1  0
  7  8  1  0
  8  9  2  0
  8 37  1  0
  9 10  1  0
  9 28  1  0
 10 11  1  0
 10 12  1  0
 10 13  1  0
 13 14  1  0
 13 21  1  0
 13 38  1  0
 14 15  1  0
 14 39  1  0
 14 40  1  0
 15 20  1  0
 15 16  2  0
 16 17  1  0
 16 41  1  0
 17 18  2  0
 17 42  1  0
 18 19  1  0
 18 43  1  0
 19 20  2  0
 19 44  1  0
 20 45  1  0
 21 22  1  0
 21 46  1  0
 21 47  1  0
 22 27  1  0
 22 23  2  0
 23 24  1  0
 23 48  1  0
 24 25  2  0
 24 49  1  0
 25 26  1  0
 25 50  1  0
 26 27  2  0
 26 51  1  0
 27 52  1  0
 28 29  1  0
 28 53  1  0
 28 54  1  0
 29 30  1  0
 29 55  1  0
 29 56  1  0
 30 57  1  0
 30 58  1  0
M  CHG  1  10   1
M  END
>  <DOCK_score>  (1) 
-56.019428

>  <SMILES>  (1) 
FC(F)CCC=C1C=C([NH2+]C(Cc2ccccc2)Cc2ccccc2)CCC1

$$$$
