NC(=O)c1ccccc1Nc1ccccc1N1CC[NH+]([C@@H](c2ccccc2)c2ccc(O)cc2)CC1
     RDKit          3D

 67 71  0  0  1  0  0  0  0  0999 V2000
  132.2677  137.0479  165.4543 N   0  0  0  0  0  0  0  0  0  0  0  0
  133.1031  138.0812  165.6788 C   0  0  0  0  0  0  0  0  0  0  0  0
  132.6905  139.0910  166.2163 O   0  0  0  0  0  0  0  0  0  0  0  0
  134.5173  137.9875  165.2729 C   0  0  0  0  0  0  0  0  0  0  0  0
  135.4704  137.4767  166.1580 C   0  0  0  0  0  0  0  0  0  0  0  0
  136.7912  137.3978  165.7750 C   0  0  0  0  0  0  0  0  0  0  0  0
  137.1808  137.8166  164.5123 C   0  0  0  0  0  0  0  0  0  0  0  0
  136.2513  138.3176  163.6248 C   0  0  0  0  0  0  0  0  0  0  0  0
  134.9140  138.4055  163.9930 C   0  0  0  0  0  0  0  0  0  0  0  0
  133.9761  138.9093  163.1012 N   0  0  0  0  0  0  0  0  0  0  0  0
  134.3760  139.3251  161.8254 C   0  0  0  0  0  0  0  0  0  0  0  0
  135.3096  140.3412  161.6858 C   0  0  0  0  0  0  0  0  0  0  0  0
  135.7033  140.7497  160.4251 C   0  0  0  0  0  0  0  0  0  0  0  0
  135.1689  140.1483  159.3005 C   0  0  0  0  0  0  0  0  0  0  0  0
  134.2376  139.1346  159.4303 C   0  0  0  0  0  0  0  0  0  0  0  0
  133.8368  138.7184  160.6909 C   0  0  0  0  0  0  0  0  0  0  0  0
  132.8939  137.6927  160.8246 N   0  0  0  0  0  0  0  0  0  0  0  0
  133.4112  136.4278  160.2838 C   0  0  0  0  0  0  0  0  0  0  0  0
  132.3765  135.3218  160.5026 C   0  0  0  0  0  0  0  0  0  0  0  0
  131.1219  135.6850  159.8304 N   0  0  0  0  0  0  0  0  0  0  0  0
  131.2931  135.8086  158.8438 H   0  0  0  0  0  0  0  0  0  0  0  0
  130.1348  134.6148  160.0255 C   0  0  1  0  0  0  0  0  0  0  0  0
  129.9504  134.4805  161.0914 H   0  0  0  0  0  0  0  0  0  0  0  0
  128.8475  134.9869  159.3360 C   0  0  0  0  0  0  0  0  0  0  0  0
  127.6408  134.5286  159.8305 C   0  0  0  0  0  0  0  0  0  0  0  0
  126.4598  134.8737  159.2006 C   0  0  0  0  0  0  0  0  0  0  0  0
  126.4861  135.6695  158.0707 C   0  0  0  0  0  0  0  0  0  0  0  0
  127.6931  136.1236  157.5729 C   0  0  0  0  0  0  0  0  0  0  0  0
  128.8738  135.7821  158.2055 C   0  0  0  0  0  0  0  0  0  0  0  0
  130.6642  133.3303  159.4416 C   0  0  0  0  0  0  0  0  0  0  0  0
  130.9728  133.2597  158.0956 C   0  0  0  0  0  0  0  0  0  0  0  0
  131.4637  132.0852  157.5589 C   0  0  0  0  0  0  0  0  0  0  0  0
  131.6362  130.9725  158.3695 C   0  0  0  0  0  0  0  0  0  0  0  0
  132.1141  129.8144  157.8430 O   0  0  0  0  0  0  0  0  0  0  0  0
  131.3204  131.0443  159.7186 C   0  0  0  0  0  0  0  0  0  0  0  0
  130.8352  132.2229  160.2514 C   0  0  0  0  0  0  0  0  0  0  0  0
  130.6049  136.9371  160.3982 C   0  0  0  0  0  0  0  0  0  0  0  0
  131.6249  138.0565  160.1785 C   0  0  0  0  0  0  0  0  0  0  0  0
  132.5969  136.2423  165.0257 H   0  0  0  0  0  0  0  0  0  0  0  0
  131.3372  137.1095  165.7213 H   0  0  0  0  0  0  0  0  0  0  0  0
  135.1727  137.1488  167.1430 H   0  0  0  0  0  0  0  0  0  0  0  0
  137.5272  137.0071  166.4621 H   0  0  0  0  0  0  0  0  0  0  0  0
  138.2188  137.7499  164.2215 H   0  0  0  0  0  0  0  0  0  0  0  0
  136.5630  138.6421  162.6431 H   0  0  0  0  0  0  0  0  0  0  0  0
  133.0441  138.9734  163.3622 H   0  0  0  0  0  0  0  0  0  0  0  0
  135.7288  140.8134  162.5619 H   0  0  0  0  0  0  0  0  0  0  0  0
  136.4305  141.5411  160.3182 H   0  0  0  0  0  0  0  0  0  0  0  0
  135.4798  140.4712  158.3181 H   0  0  0  0  0  0  0  0  0  0  0  0
  133.8256  138.6640  158.5499 H   0  0  0  0  0  0  0  0  0  0  0  0
  133.6035  136.5400  159.2168 H   0  0  0  0  0  0  0  0  0  0  0  0
  134.3375  136.1655  160.7951 H   0  0  0  0  0  0  0  0  0  0  0  0
  132.1946  135.2005  161.5705 H   0  0  0  0  0  0  0  0  0  0  0  0
  132.7523  134.3858  160.0894 H   0  0  0  0  0  0  0  0  0  0  0  0
  127.6205  133.9037  160.7112 H   0  0  0  0  0  0  0  0  0  0  0  0
  125.5167  134.5190  159.5896 H   0  0  0  0  0  0  0  0  0  0  0  0
  125.5634  135.9368  157.5769 H   0  0  0  0  0  0  0  0  0  0  0  0
  127.7136  136.7454  156.6901 H   0  0  0  0  0  0  0  0  0  0  0  0
  129.8169  136.1369  157.8167 H   0  0  0  0  0  0  0  0  0  0  0  0
  130.8342  134.1248  157.4642 H   0  0  0  0  0  0  0  0  0  0  0  0
  131.7087  132.0318  156.5084 H   0  0  0  0  0  0  0  0  0  0  0  0
  132.3053  129.8622  156.8962 H   0  0  0  0  0  0  0  0  0  0  0  0
  131.4535  130.1793  160.3515 H   0  0  0  0  0  0  0  0  0  0  0  0
  130.5896  132.2793  161.3016 H   0  0  0  0  0  0  0  0  0  0  0  0
  130.4321  136.8076  161.4665 H   0  0  0  0  0  0  0  0  0  0  0  0
  129.6673  137.1984  159.9075 H   0  0  0  0  0  0  0  0  0  0  0  0
  131.2479  138.9824  160.6128 H   0  0  0  0  0  0  0  0  0  0  0  0
  131.7878  138.1955  159.1097 H   0  0  0  0  0  0  0  0  0  0  0  0
  1  2  1  0
  1 39  1  0
  1 40  1  0
  2  3  2  0
  2  4  1  0
  4  9  2  0
  4  5  1  0
  5  6  2  0
  5 41  1  0
  6  7  1  0
  6 42  1  0
  7  8  2  0
  7 43  1  0
  8  9  1  0
  8 44  1  0
  9 10  1  0
 10 11  1  0
 10 45  1  0
 11 16  1  0
 11 12  2  0
 12 13  1  0
 12 46  1  0
 13 14  2  0
 13 47  1  0
 14 15  1  0
 14 48  1  0
 15 16  2  0
 15 49  1  0
 16 17  1  0
 17 38  1  0
 17 18  1  0
 18 19  1  0
 18 50  1  0
 18 51  1  0
 19 20  1  0
 19 52  1  0
 19 53  1  0
 20 21  1  0
 20 22  1  0
 20 37  1  0
 22 23  1  1
 22 24  1  0
 22 30  1  0
 24 29  1  0
 24 25  2  0
 25 26  1  0
 25 54  1  0
 26 27  2  0
 26 55  1  0
 27 28  1  0
 27 56  1  0
 28 29  2  0
 28 57  1  0
 29 58  1  0
 30 36  1  0
 30 31  2  0
 31 32  1  0
 31 59  1  0
 32 33  2  0
 32 60  1  0
 33 34  1  0
 33 35  1  0
 34 61  1  0
 35 36  2  0
 35 62  1  0
 36 63  1  0
 37 38  1  0
 37 64  1  0
 37 65  1  0
 38 66  1  0
 38 67  1  0
M  CHG  1  20   1
M  END
>  <DOCK_score>  (1) 
-57.872608

>  <SMILES>  (1) 
NC(=O)c1ccccc1Nc1ccccc1N1CC[NH+]([C@@H](c2ccccc2)c2ccc(O)cc2)CC1

$$$$
