N[C@@H]1C[C@@H]1NC(N[C@H]1C[C@H]1N)=[NH+]Cc1cc(O)cc(OCc2cccc3ccccc23)c1
     RDKit          3D

 62 66  0  0  1  0  0  0  0  0999 V2000
  126.7898  137.1671  162.6720 N   0  0  0  0  0  0  0  0  0  0  0  0
  127.9517  137.6859  163.4058 C   0  0  2  0  0  0  0  0  0  0  0  0
  127.8395  137.7371  164.4888 H   0  0  0  0  0  0  0  0  0  0  0  0
  128.7849  138.7765  162.7296 C   0  0  0  0  0  0  0  0  0  0  0  0
  129.3404  137.3564  162.8542 C   0  0  2  0  0  0  0  0  0  0  0  0
  130.1419  137.1908  163.5741 H   0  0  0  0  0  0  0  0  0  0  0  0
  129.4094  136.5475  161.6347 N   0  0  0  0  0  0  0  0  0  0  0  0
  130.4581  136.7095  160.7607 C   0  0  0  0  0  0  0  0  0  0  0  0
  130.5229  135.9506  159.6163 N   0  0  0  0  0  0  0  0  0  0  0  0
  129.4742  134.9690  159.3281 C   0  0  1  0  0  0  0  0  0  0  0  0
  128.4660  135.3723  159.2328 H   0  0  0  0  0  0  0  0  0  0  0  0
  129.8454  133.7781  158.4420 C   0  0  0  0  0  0  0  0  0  0  0  0
  129.6229  133.5755  159.9422 C   0  0  1  0  0  0  0  0  0  0  0  0
  128.7124  133.0619  160.2510 H   0  0  0  0  0  0  0  0  0  0  0  0
  130.8062  133.3242  160.7755 N   0  0  0  0  0  0  0  0  0  0  0  0
  131.3911  137.5830  161.0171 N   0  0  0  0  0  0  0  0  0  0  0  0
  131.3454  138.1186  161.8245 H   0  0  0  0  0  0  0  0  0  0  0  0
  132.5089  137.7556  160.0860 C   0  0  0  0  0  0  0  0  0  0  0  0
  133.4405  138.8174  160.6108 C   0  0  0  0  0  0  0  0  0  0  0  0
  133.9276  139.7903  159.7586 C   0  0  0  0  0  0  0  0  0  0  0  0
  134.7852  140.7693  160.2395 C   0  0  0  0  0  0  0  0  0  0  0  0
  135.2639  141.7257  159.4009 O   0  0  0  0  0  0  0  0  0  0  0  0
  135.1503  140.7734  161.5771 C   0  0  0  0  0  0  0  0  0  0  0  0
  134.6642  139.7937  162.4288 C   0  0  0  0  0  0  0  0  0  0  0  0
  135.0232  139.7929  163.7394 O   0  0  0  0  0  0  0  0  0  0  0  0
  135.9049  140.8312  164.1713 C   0  0  0  0  0  0  0  0  0  0  0  0
  136.1896  140.6691  165.6423 C   0  0  0  0  0  0  0  0  0  0  0  0
  135.6228  139.6470  166.3403 C   0  0  0  0  0  0  0  0  0  0  0  0
  135.8778  139.4784  167.6997 C   0  0  0  0  0  0  0  0  0  0  0  0
  136.6935  140.3366  168.3714 C   0  0  0  0  0  0  0  0  0  0  0  0
  137.2925  141.4067  167.6856 C   0  0  0  0  0  0  0  0  0  0  0  0
  138.1407  142.3126  168.3452 C   0  0  0  0  0  0  0  0  0  0  0  0
  138.7038  143.3372  167.6484 C   0  0  0  0  0  0  0  0  0  0  0  0
  138.4519  143.5035  166.2878 C   0  0  0  0  0  0  0  0  0  0  0  0
  137.6364  142.6457  165.6159 C   0  0  0  0  0  0  0  0  0  0  0  0
  137.0367  141.5755  166.3017 C   0  0  0  0  0  0  0  0  0  0  0  0
  133.8060  138.8171  161.9431 C   0  0  0  0  0  0  0  0  0  0  0  0
  125.9278  137.4414  163.1190 H   0  0  0  0  0  0  0  0  0  0  0  0
  126.8081  137.4655  161.7082 H   0  0  0  0  0  0  0  0  0  0  0  0
  129.2209  139.5453  163.3677 H   0  0  0  0  0  0  0  0  0  0  0  0
  128.4709  139.1091  161.7402 H   0  0  0  0  0  0  0  0  0  0  0  0
  128.7150  135.8976  161.4440 H   0  0  0  0  0  0  0  0  0  0  0  0
  131.2628  136.0648  158.9997 H   0  0  0  0  0  0  0  0  0  0  0  0
  129.0813  133.3979  157.7640 H   0  0  0  0  0  0  0  0  0  0  0  0
  130.8699  133.7251  158.0735 H   0  0  0  0  0  0  0  0  0  0  0  0
  130.8057  132.3790  161.1286 H   0  0  0  0  0  0  0  0  0  0  0  0
  131.6551  133.5195  160.2664 H   0  0  0  0  0  0  0  0  0  0  0  0
  132.1261  138.0575  159.1110 H   0  0  0  0  0  0  0  0  0  0  0  0
  133.0491  136.8139  159.9884 H   0  0  0  0  0  0  0  0  0  0  0  0
  133.6403  139.7887  158.7175 H   0  0  0  0  0  0  0  0  0  0  0  0
  135.8533  142.3630  159.8270 H   0  0  0  0  0  0  0  0  0  0  0  0
  135.8150  141.5365  161.9539 H   0  0  0  0  0  0  0  0  0  0  0  0
  136.8385  140.7712  163.6118 H   0  0  0  0  0  0  0  0  0  0  0  0
  135.4380  141.8005  163.9962 H   0  0  0  0  0  0  0  0  0  0  0  0
  134.9684  138.9544  165.8320 H   0  0  0  0  0  0  0  0  0  0  0  0
  135.4184  138.6570  168.2292 H   0  0  0  0  0  0  0  0  0  0  0  0
  136.8790  140.1958  169.4259 H   0  0  0  0  0  0  0  0  0  0  0  0
  138.3444  142.1966  169.3994 H   0  0  0  0  0  0  0  0  0  0  0  0
  139.3551  144.0320  168.1576 H   0  0  0  0  0  0  0  0  0  0  0  0
  138.9111  144.3253  165.7585 H   0  0  0  0  0  0  0  0  0  0  0  0
  137.4509  142.7867  164.5613 H   0  0  0  0  0  0  0  0  0  0  0  0
  133.4236  138.0560  162.6072 H   0  0  0  0  0  0  0  0  0  0  0  0
  1  2  1  0
  1 38  1  0
  1 39  1  0
  2  3  1  1
  2  5  1  0
  2  4  1  0
  4  5  1  0
  4 40  1  0
  4 41  1  0
  5  6  1  1
  5  7  1  0
  7 42  1  0
  8  7  1  1
  8  9  1  0
  8 16  2  0
  9 10  1  0
  9 43  1  0
 10 11  1  6
 10 13  1  0
 10 12  1  0
 12 13  1  0
 12 44  1  0
 12 45  1  0
 13 14  1  6
 13 15  1  0
 15 46  1  0
 15 47  1  0
 16 17  1  0
 16 18  1  0
 18 19  1  0
 18 48  1  0
 18 49  1  0
 19 37  1  0
 19 20  2  0
 20 21  1  0
 20 50  1  0
 21 22  1  0
 21 23  2  0
 22 51  1  0
 23 24  1  0
 23 52  1  0
 24 25  1  0
 24 37  2  0
 25 26  1  0
 26 27  1  0
 26 53  1  0
 26 54  1  0
 27 36  1  0
 27 28  2  0
 28 29  1  0
 28 55  1  0
 29 30  2  0
 29 56  1  0
 30 31  1  0
 30 57  1  0
 31 36  2  0
 31 32  1  0
 32 33  2  0
 32 58  1  0
 33 34  1  0
 33 59  1  0
 34 35  2  0
 34 60  1  0
 35 36  1  0
 35 61  1  0
 37 62  1  0
M  CHG  1  16   1
M  END
>  <DOCK_score>  (1) 
-44.23521

>  <SMILES>  (1) 
N[C@@H]1C[C@@H]1NC(N[C@H]1C[C@H]1N)=[NH+]Cc1cc(O)cc(OCc2cccc3ccccc23)c1

$$$$
