Nc1ccc(Nc2ccc3c(c2)OC[C@@H](NC(N[C@H]2CCC(=O)NC2)=[NH+]C2CC2)C3)cc1
     RDKit          3D

 63 67  0  0  1  0  0  0  0  0999 V2000
  136.4893  141.6596  168.8468 N   0  0  0  0  0  0  0  0  0  0  0  0
  136.4747  141.4841  167.4582 C   0  0  0  0  0  0  0  0  0  0  0  0
  136.3775  140.2073  166.9207 C   0  0  0  0  0  0  0  0  0  0  0  0
  136.3630  140.0340  165.5510 C   0  0  0  0  0  0  0  0  0  0  0  0
  136.4455  141.1367  164.7108 C   0  0  0  0  0  0  0  0  0  0  0  0
  136.4313  140.9612  163.3217 N   0  0  0  0  0  0  0  0  0  0  0  0
  135.7431  139.8827  162.7611 C   0  0  0  0  0  0  0  0  0  0  0  0
  136.3950  138.6731  162.5507 C   0  0  0  0  0  0  0  0  0  0  0  0
  135.7105  137.6097  161.9998 C   0  0  0  0  0  0  0  0  0  0  0  0
  134.3777  137.7418  161.6436 C   0  0  0  0  0  0  0  0  0  0  0  0
  133.7236  138.9450  161.8478 C   0  0  0  0  0  0  0  0  0  0  0  0
  134.4092  140.0170  162.4071 C   0  0  0  0  0  0  0  0  0  0  0  0
  132.4162  139.1140  161.5192 O   0  0  0  0  0  0  0  0  0  0  0  0
  131.8248  138.1691  160.6262 C   0  0  0  0  0  0  0  0  0  0  0  0
  132.1558  136.7575  161.1272 C   0  0  1  0  0  0  0  0  0  0  0  0
  131.8333  136.6502  162.1629 H   0  0  0  0  0  0  0  0  0  0  0  0
  131.4745  135.7648  160.2926 N   0  0  0  0  0  0  0  0  0  0  0  0
  130.2118  135.3357  160.6271 C   0  0  0  0  0  0  0  0  0  0  0  0
  129.5886  135.8382  161.7448 N   0  0  0  0  0  0  0  0  0  0  0  0
  128.2432  135.3812  162.1014 C   0  0  1  0  0  0  0  0  0  0  0  0
  128.1044  134.3543  161.7634 H   0  0  0  0  0  0  0  0  0  0  0  0
  128.0625  135.4510  163.6226 C   0  0  0  0  0  0  0  0  0  0  0  0
  126.7232  134.8043  163.9816 C   0  0  0  0  0  0  0  0  0  0  0  0
  125.6367  135.3495  163.0997 C   0  0  0  0  0  0  0  0  0  0  0  0
  124.4848  135.1978  163.4476 O   0  0  0  0  0  0  0  0  0  0  0  0
  125.8706  135.9911  161.9543 N   0  0  0  0  0  0  0  0  0  0  0  0
  127.2022  136.2844  161.4392 C   0  0  0  0  0  0  0  0  0  0  0  0
  129.6057  134.4526  159.8846 N   0  0  0  0  0  0  0  0  0  0  0  0
  128.6379  134.4549  159.8204 H   0  0  0  0  0  0  0  0  0  0  0  0
  130.3862  133.4562  159.1467 C   0  0  0  0  0  0  0  0  0  0  0  0
  130.4122  133.5677  157.6210 C   0  0  0  0  0  0  0  0  0  0  0  0
  129.6164  132.4468  158.2928 C   0  0  0  0  0  0  0  0  0  0  0  0
  133.6704  136.5574  161.0343 C   0  0  0  0  0  0  0  0  0  0  0  0
  136.5426  142.4136  165.2483 C   0  0  0  0  0  0  0  0  0  0  0  0
  136.5572  142.5867  166.6180 C   0  0  0  0  0  0  0  0  0  0  0  0
  136.4317  140.8894  169.4337 H   0  0  0  0  0  0  0  0  0  0  0  0
  136.5571  142.5514  169.2223 H   0  0  0  0  0  0  0  0  0  0  0  0
  136.3088  139.3501  167.5741 H   0  0  0  0  0  0  0  0  0  0  0  0
  136.2871  139.0412  165.1329 H   0  0  0  0  0  0  0  0  0  0  0  0
  136.8994  141.5885  162.7486 H   0  0  0  0  0  0  0  0  0  0  0  0
  137.4348  138.5650  162.8219 H   0  0  0  0  0  0  0  0  0  0  0  0
  136.2175  136.6693  161.8415 H   0  0  0  0  0  0  0  0  0  0  0  0
  133.9016  140.9569  162.5667 H   0  0  0  0  0  0  0  0  0  0  0  0
  130.7439  138.3081  160.6078 H   0  0  0  0  0  0  0  0  0  0  0  0
  132.2299  138.3079  159.6239 H   0  0  0  0  0  0  0  0  0  0  0  0
  131.9142  135.4103  159.5040 H   0  0  0  0  0  0  0  0  0  0  0  0
  130.0399  136.4955  162.2973 H   0  0  0  0  0  0  0  0  0  0  0  0
  128.8747  134.9149  164.1136 H   0  0  0  0  0  0  0  0  0  0  0  0
  128.0620  136.4922  163.9447 H   0  0  0  0  0  0  0  0  0  0  0  0
  126.4850  135.0178  165.0236 H   0  0  0  0  0  0  0  0  0  0  0  0
  126.7968  133.7259  163.8407 H   0  0  0  0  0  0  0  0  0  0  0  0
  125.1068  136.2809  161.4315 H   0  0  0  0  0  0  0  0  0  0  0  0
  127.4464  137.3267  161.6448 H   0  0  0  0  0  0  0  0  0  0  0  0
  127.2159  136.1203  160.3617 H   0  0  0  0  0  0  0  0  0  0  0  0
  131.2931  133.1087  159.6418 H   0  0  0  0  0  0  0  0  0  0  0  0
  129.8486  134.3823  157.1662 H   0  0  0  0  0  0  0  0  0  0  0  0
  131.3363  133.2936  157.1120 H   0  0  0  0  0  0  0  0  0  0  0  0
  130.0169  131.4352  158.2257 H   0  0  0  0  0  0  0  0  0  0  0  0
  128.5293  132.5237  158.2802 H   0  0  0  0  0  0  0  0  0  0  0  0
  133.9504  135.6517  161.5722 H   0  0  0  0  0  0  0  0  0  0  0  0
  133.9602  136.4618  159.9878 H   0  0  0  0  0  0  0  0  0  0  0  0
  136.6072  143.2712  164.5949 H   0  0  0  0  0  0  0  0  0  0  0  0
  136.6331  143.5796  167.0361 H   0  0  0  0  0  0  0  0  0  0  0  0
  1  2  1  0
  1 36  1  0
  1 37  1  0
  2 35  2  0
  2  3  1  0
  3  4  2  0
  3 38  1  0
  4  5  1  0
  4 39  1  0
  5  6  1  0
  5 34  2  0
  6  7  1  0
  6 40  1  0
  7 12  1  0
  7  8  2  0
  8  9  1  0
  8 41  1  0
  9 10  2  0
  9 42  1  0
 10 33  1  0
 10 11  1  0
 11 12  2  0
 11 13  1  0
 12 43  1  0
 13 14  1  0
 14 15  1  0
 14 44  1  0
 14 45  1  0
 15 16  1  1
 15 17  1  0
 15 33  1  0
 17 46  1  0
 18 17  1  0
 18 19  1  0
 18 28  2  0
 19 20  1  0
 19 47  1  0
 20 21  1  6
 20 27  1  0
 20 22  1  0
 22 23  1  0
 22 48  1  0
 22 49  1  0
 23 24  1  0
 23 50  1  0
 23 51  1  0
 24 25  2  0
 24 26  1  0
 26 27  1  0
 26 52  1  0
 27 53  1  0
 27 54  1  0
 28 29  1  0
 28 30  1  0
 30 32  1  0
 30 31  1  0
 30 55  1  0
 31 32  1  0
 31 56  1  0
 31 57  1  0
 32 58  1  0
 32 59  1  0
 33 60  1  0
 33 61  1  0
 34 35  1  0
 34 62  1  0
 35 63  1  0
M  CHG  1  28   1
M  END
>  <DOCK_score>  (1) 
-41.410976

>  <SMILES>  (1) 
Nc1ccc(Nc2ccc3c(c2)OC[C@@H](NC(N[C@H]2CCC(=O)NC2)=[NH+]C2CC2)C3)cc1

$$$$
