CN1CC[NH+]=C1NCc1ccc(Nc2ccc(C3=CC(=O)NC3)cc2)cc1
     RDKit          3D

 51 54  0  0  1  0  0  0  0  0999 V2000
  130.4584  130.2765  158.0072 C   0  0  0  0  0  0  0  0  0  0  0  0
  130.5790  131.0487  156.7680 N   0  0  0  0  0  0  0  0  0  0  0  0
  131.2036  130.5817  155.5191 C   0  0  0  0  0  0  0  0  0  0  0  0
  131.0471  131.7884  154.5725 C   0  0  0  0  0  0  0  0  0  0  0  0
  130.3555  132.7946  155.3901 N   0  0  0  0  0  0  0  0  0  0  0  0
  130.1047  133.6809  155.0861 H   0  0  0  0  0  0  0  0  0  0  0  0
  130.1309  132.3265  156.5744 C   0  0  0  0  0  0  0  0  0  0  0  0
  129.4964  133.0513  157.5553 N   0  0  0  0  0  0  0  0  0  0  0  0
  129.0418  134.4165  157.2791 C   0  0  0  0  0  0  0  0  0  0  0  0
  128.3833  134.9852  158.5096 C   0  0  0  0  0  0  0  0  0  0  0  0
  128.6861  136.2698  158.9228 C   0  0  0  0  0  0  0  0  0  0  0  0
  128.0811  136.7958  160.0471 C   0  0  0  0  0  0  0  0  0  0  0  0
  127.1751  136.0292  160.7694 C   0  0  0  0  0  0  0  0  0  0  0  0
  126.5647  136.5564  161.9100 N   0  0  0  0  0  0  0  0  0  0  0  0
  127.1614  136.3940  163.1566 C   0  0  0  0  0  0  0  0  0  0  0  0
  126.5540  136.9254  164.2916 C   0  0  0  0  0  0  0  0  0  0  0  0
  127.1355  136.7628  165.5224 C   0  0  0  0  0  0  0  0  0  0  0  0
  128.3479  136.0710  165.6358 C   0  0  0  0  0  0  0  0  0  0  0  0
  128.9780  135.9000  166.9519 C   0  0  0  0  0  0  0  0  0  0  0  0
  128.4494  135.2705  168.0237 C   0  0  0  0  0  0  0  0  0  0  0  0
  129.3926  135.3204  169.1333 C   0  0  0  0  0  0  0  0  0  0  0  0
  129.1979  134.8382  170.2339 O   0  0  0  0  0  0  0  0  0  0  0  0
  130.5094  135.9758  168.7678 N   0  0  0  0  0  0  0  0  0  0  0  0
  130.3465  136.3887  167.3681 C   0  0  0  0  0  0  0  0  0  0  0  0
  128.9581  135.5433  164.4912 C   0  0  0  0  0  0  0  0  0  0  0  0
  128.3669  135.7055  163.2650 C   0  0  0  0  0  0  0  0  0  0  0  0
  126.8773  134.7371  160.3545 C   0  0  0  0  0  0  0  0  0  0  0  0
  127.4821  134.2193  159.2262 C   0  0  0  0  0  0  0  0  0  0  0  0
  131.3350  130.4512  158.6309 H   0  0  0  0  0  0  0  0  0  0  0  0
  129.5625  130.5885  158.5440 H   0  0  0  0  0  0  0  0  0  0  0  0
  130.3878  129.2153  157.7686 H   0  0  0  0  0  0  0  0  0  0  0  0
  132.2571  130.3520  155.6785 H   0  0  0  0  0  0  0  0  0  0  0  0
  130.6748  129.7134  155.1259 H   0  0  0  0  0  0  0  0  0  0  0  0
  132.0238  132.1568  154.2584 H   0  0  0  0  0  0  0  0  0  0  0  0
  130.4427  131.5188  153.7063 H   0  0  0  0  0  0  0  0  0  0  0  0
  129.3495  132.6590  158.4302 H   0  0  0  0  0  0  0  0  0  0  0  0
  129.8961  135.0355  157.0053 H   0  0  0  0  0  0  0  0  0  0  0  0
  128.3256  134.4018  156.4576 H   0  0  0  0  0  0  0  0  0  0  0  0
  129.3939  136.8636  158.3632 H   0  0  0  0  0  0  0  0  0  0  0  0
  128.3148  137.8006  160.3669 H   0  0  0  0  0  0  0  0  0  0  0  0
  125.7249  137.0358  161.8331 H   0  0  0  0  0  0  0  0  0  0  0  0
  125.6213  137.4628  164.2027 H   0  0  0  0  0  0  0  0  0  0  0  0
  126.6618  137.1717  166.4026 H   0  0  0  0  0  0  0  0  0  0  0  0
  127.4768  134.8018  168.0536 H   0  0  0  0  0  0  0  0  0  0  0  0
  131.2846  136.1415  169.3270 H   0  0  0  0  0  0  0  0  0  0  0  0
  131.1149  135.9295  166.7462 H   0  0  0  0  0  0  0  0  0  0  0  0
  130.3979  137.4747  167.2902 H   0  0  0  0  0  0  0  0  0  0  0  0
  129.8933  135.0095  164.5744 H   0  0  0  0  0  0  0  0  0  0  0  0
  128.8371  135.2991  162.3817 H   0  0  0  0  0  0  0  0  0  0  0  0
  126.1738  134.1384  160.9139 H   0  0  0  0  0  0  0  0  0  0  0  0
  127.2513  133.2148  158.9033 H   0  0  0  0  0  0  0  0  0  0  0  0
  1  2  1  0
  1 29  1  0
  1 30  1  0
  1 31  1  0
  2  7  1  0
  2  3  1  0
  3  4  1  0
  3 32  1  0
  3 33  1  0
  4  5  1  0
  4 34  1  0
  4 35  1  0
  5  6  1  0
  5  7  2  0
  7  8  1  0
  8  9  1  0
  8 36  1  0
  9 10  1  0
  9 37  1  0
  9 38  1  0
 10 28  1  0
 10 11  2  0
 11 12  1  0
 11 39  1  0
 12 13  2  0
 12 40  1  0
 13 14  1  0
 13 27  1  0
 14 15  1  0
 14 41  1  0
 15 26  1  0
 15 16  2  0
 16 17  1  0
 16 42  1  0
 17 18  2  0
 17 43  1  0
 18 19  1  0
 18 25  1  0
 19 24  1  0
 19 20  2  0
 20 21  1  0
 20 44  1  0
 21 22  2  0
 21 23  1  0
 23 24  1  0
 23 45  1  0
 24 46  1  0
 24 47  1  0
 25 26  2  0
 25 48  1  0
 26 49  1  0
 27 28  2  0
 27 50  1  0
 28 51  1  0
M  CHG  1   5   1
M  END
>  <DOCK_score>  (1) 
-41.087784

>  <SMILES>  (1) 
CN1CC[NH+]=C1NCc1ccc(Nc2ccc(C3=CC(=O)NC3)cc2)cc1

$$$$
