CC=CSc1cc(C)c(Nc2[nH]cc(-c3ccncc3)[nH+]2)cc1O
     RDKit          3D

 43 45  0  0  1  0  0  0  0  0999 V2000
  128.4081  138.7651  165.9685 C   0  0  0  0  0  0  0  0  0  0  0  0
  127.5957  137.8060  165.1370 C   0  0  0  0  0  0  0  0  0  0  0  0
  127.3901  138.0531  163.8553 C   0  0  0  0  0  0  0  0  0  0  0  0
  126.4403  136.9317  162.8832 S   0  0  0  0  0  0  0  0  0  0  0  0
  127.5767  136.4301  161.6334 C   0  0  0  0  0  0  0  0  0  0  0  0
  128.9365  136.3888  161.9073 C   0  0  0  0  0  0  0  0  0  0  0  0
  129.8282  136.0008  160.9263 C   0  0  0  0  0  0  0  0  0  0  0  0
  131.3051  135.9630  161.2242 C   0  0  0  0  0  0  0  0  0  0  0  0
  129.3652  135.6403  159.6673 C   0  0  0  0  0  0  0  0  0  0  0  0
  130.2706  135.2419  158.6766 N   0  0  0  0  0  0  0  0  0  0  0  0
  130.1748  133.9779  158.1188 C   0  0  0  0  0  0  0  0  0  0  0  0
  129.7000  132.8674  158.7478 N   0  0  0  0  0  0  0  0  0  0  0  0
  129.3716  132.8198  159.6593 H   0  0  0  0  0  0  0  0  0  0  0  0
  129.7720  131.8283  157.8552 C   0  0  0  0  0  0  0  0  0  0  0  0
  130.2886  132.3314  156.7055 C   0  0  0  0  0  0  0  0  0  0  0  0
  130.5478  131.5714  155.4596 C   0  0  0  0  0  0  0  0  0  0  0  0
  129.9163  131.9194  154.2612 C   0  0  0  0  0  0  0  0  0  0  0  0
  130.1909  131.1893  153.1239 C   0  0  0  0  0  0  0  0  0  0  0  0
  131.0268  130.1679  153.1600 N   0  0  0  0  0  0  0  0  0  0  0  0
  131.6388  129.8038  154.2703 C   0  0  0  0  0  0  0  0  0  0  0  0
  131.4263  130.4831  155.4515 C   0  0  0  0  0  0  0  0  0  0  0  0
  130.5209  133.6544  156.8969 N   0  0  0  0  0  0  0  0  0  0  0  0
  130.8868  134.2628  156.2360 H   0  0  0  0  0  0  0  0  0  0  0  0
  128.0051  135.6804  159.3892 C   0  0  0  0  0  0  0  0  0  0  0  0
  127.1104  136.0745  160.3693 C   0  0  0  0  0  0  0  0  0  0  0  0
  125.7783  136.1140  160.0989 O   0  0  0  0  0  0  0  0  0  0  0  0
  129.4119  138.8472  165.5518 H   0  0  0  0  0  0  0  0  0  0  0  0
  127.9310  139.7451  165.9626 H   0  0  0  0  0  0  0  0  0  0  0  0
  128.4688  138.3968  166.9926 H   0  0  0  0  0  0  0  0  0  0  0  0
  127.1818  136.9166  165.5888 H   0  0  0  0  0  0  0  0  0  0  0  0
  127.8041  138.9425  163.4037 H   0  0  0  0  0  0  0  0  0  0  0  0
  129.2981  136.6645  162.8870 H   0  0  0  0  0  0  0  0  0  0  0  0
  131.5742  134.9772  161.6032 H   0  0  0  0  0  0  0  0  0  0  0  0
  131.8651  136.1666  160.3114 H   0  0  0  0  0  0  0  0  0  0  0  0
  131.5441  136.7180  161.9731 H   0  0  0  0  0  0  0  0  0  0  0  0
  130.9650  135.8512  158.3806 H   0  0  0  0  0  0  0  0  0  0  0  0
  129.4748  130.8054  158.0333 H   0  0  0  0  0  0  0  0  0  0  0  0
  129.2275  132.7504  154.2258 H   0  0  0  0  0  0  0  0  0  0  0  0
  129.7118  131.4532  152.1927 H   0  0  0  0  0  0  0  0  0  0  0  0
  132.3154  128.9622  154.2541 H   0  0  0  0  0  0  0  0  0  0  0  0
  131.9311  130.1794  156.3567 H   0  0  0  0  0  0  0  0  0  0  0  0
  127.6458  135.4040  158.4089 H   0  0  0  0  0  0  0  0  0  0  0  0
  125.2339  136.4007  160.8449 H   0  0  0  0  0  0  0  0  0  0  0  0
  1  2  1  0
  1 27  1  0
  1 28  1  0
  1 29  1  0
  2  3  2  0
  2 30  1  0
  3  4  1  0
  3 31  1  0
  4  5  1  0
  5 25  2  0
  5  6  1  0
  6  7  2  0
  6 32  1  0
  7  8  1  0
  7  9  1  0
  8 33  1  0
  8 34  1  0
  8 35  1  0
  9 10  1  0
  9 24  2  0
 10 36  1  0
 11 10  1  0
 11 22  2  0
 11 12  1  0
 12 13  1  0
 12 14  1  0
 14 15  2  0
 14 37  1  0
 15 16  1  0
 15 22  1  0
 16 21  1  0
 16 17  2  0
 17 18  1  0
 17 38  1  0
 18 19  2  0
 18 39  1  0
 19 20  1  0
 20 21  2  0
 20 40  1  0
 21 41  1  0
 22 23  1  0
 24 25  1  0
 24 42  1  0
 25 26  1  0
 26 43  1  0
M  CHG  1  22   1
M  END
>  <DOCK_score>  (1) 
-45.941078

>  <SMILES>  (1) 
CC=CSc1cc(C)c(Nc2[nH]cc(-c3ccncc3)[nH+]2)cc1O

$$$$
