N#Cc1ccc(Nc2[nH]cc(-c3ccc(Br)cc3)[nH+]2)cc1
     RDKit          3D

 33 35  0  0  1  0  0  0  0  0999 V2000
  126.3971  136.7438  164.0384 N   0  0  0  0  0  0  0  0  0  0  0  0
  127.0904  136.4516  163.1873 C   0  0  0  0  0  0  0  0  0  0  0  0
  127.9653  136.0846  162.1147 C   0  0  0  0  0  0  0  0  0  0  0  0
  129.1362  135.3675  162.3799 C   0  0  0  0  0  0  0  0  0  0  0  0
  129.9750  135.0161  161.3465 C   0  0  0  0  0  0  0  0  0  0  0  0
  129.6587  135.3736  160.0391 C   0  0  0  0  0  0  0  0  0  0  0  0
  130.5097  135.0162  158.9958 N   0  0  0  0  0  0  0  0  0  0  0  0
  130.3330  133.8082  158.3404 C   0  0  0  0  0  0  0  0  0  0  0  0
  129.8304  132.6714  158.8952 N   0  0  0  0  0  0  0  0  0  0  0  0
  129.5343  132.5619  159.8123 H   0  0  0  0  0  0  0  0  0  0  0  0
  129.8170  131.7090  157.9158 C   0  0  0  0  0  0  0  0  0  0  0  0
  130.3200  132.2820  156.7939 C   0  0  0  0  0  0  0  0  0  0  0  0
  130.5011  131.6173  155.4802 C   0  0  0  0  0  0  0  0  0  0  0  0
  129.8431  132.1056  154.3528 C   0  0  0  0  0  0  0  0  0  0  0  0
  130.0184  131.4862  153.1322 C   0  0  0  0  0  0  0  0  0  0  0  0
  130.8378  130.3763  153.0280 C   0  0  0  0  0  0  0  0  0  0  0  0
  131.0686  129.5280  151.3539 Br  0  0  0  0  0  0  0  0  0  0  0  0
  131.4902  129.8839  154.1459 C   0  0  0  0  0  0  0  0  0  0  0  0
  131.3255  130.4988  155.3702 C   0  0  0  0  0  0  0  0  0  0  0  0
  130.6274  133.5701  157.0856 N   0  0  0  0  0  0  0  0  0  0  0  0
  131.0051  134.2127  156.4648 H   0  0  0  0  0  0  0  0  0  0  0  0
  128.4969  136.0920  159.7725 C   0  0  0  0  0  0  0  0  0  0  0  0
  127.6508  136.4418  160.8005 C   0  0  0  0  0  0  0  0  0  0  0  0
  129.3824  135.0901  163.3942 H   0  0  0  0  0  0  0  0  0  0  0  0
  130.8797  134.4626  161.5505 H   0  0  0  0  0  0  0  0  0  0  0  0
  131.2235  135.6147  158.7254 H   0  0  0  0  0  0  0  0  0  0  0  0
  129.4756  130.6898  158.0200 H   0  0  0  0  0  0  0  0  0  0  0  0
  129.1997  132.9692  154.4336 H   0  0  0  0  0  0  0  0  0  0  0  0
  129.5117  131.8658  152.2573 H   0  0  0  0  0  0  0  0  0  0  0  0
  132.1286  129.0171  154.0596 H   0  0  0  0  0  0  0  0  0  0  0  0
  131.8346  130.1143  156.2416 H   0  0  0  0  0  0  0  0  0  0  0  0
  128.2568  136.3719  158.7573 H   0  0  0  0  0  0  0  0  0  0  0  0
  126.7475  136.9959  160.5923 H   0  0  0  0  0  0  0  0  0  0  0  0
  1  2  3  0
  2  3  1  0
  3 23  2  0
  3  4  1  0
  4  5  2  0
  4 24  1  0
  5  6  1  0
  5 25  1  0
  6  7  1  0
  6 22  2  0
  7 26  1  0
  8  7  1  0
  8 20  2  0
  8  9  1  0
  9 10  1  0
  9 11  1  0
 11 12  2  0
 11 27  1  0
 12 13  1  0
 12 20  1  0
 13 19  1  0
 13 14  2  0
 14 15  1  0
 14 28  1  0
 15 16  2  0
 15 29  1  0
 16 17  1  0
 16 18  1  0
 18 19  2  0
 18 30  1  0
 19 31  1  0
 20 21  1  0
 22 23  1  0
 22 32  1  0
 23 33  1  0
M  CHG  1  20   1
M  END
>  <DOCK_score>  (1) 
-46.189484

>  <SMILES>  (1) 
N#Cc1ccc(Nc2[nH]cc(-c3ccc(Br)cc3)[nH+]2)cc1

$$$$
