CCc1ccc(Nc2cc(Cl)c(Nc3[nH]c4ccccc4[nH+]3)cc2Cl)cc1
     RDKit          3D

 46 49  0  0  0  0  0  0  0  0999 V2000
  127.9010  136.9063  169.1798 C   0  0  0  0  0  0  0  0  0  0  0  0
  128.7684  137.4349  168.0356 C   0  0  0  0  0  0  0  0  0  0  0  0
  128.0827  137.1671  166.7206 C   0  0  0  0  0  0  0  0  0  0  0  0
  127.2166  138.1059  166.1903 C   0  0  0  0  0  0  0  0  0  0  0  0
  126.5910  137.8662  164.9829 C   0  0  0  0  0  0  0  0  0  0  0  0
  126.8237  136.6754  164.3060 C   0  0  0  0  0  0  0  0  0  0  0  0
  126.1879  136.4269  163.0875 N   0  0  0  0  0  0  0  0  0  0  0  0
  126.9485  136.2108  161.9320 C   0  0  0  0  0  0  0  0  0  0  0  0
  128.1893  136.8193  161.7936 C   0  0  0  0  0  0  0  0  0  0  0  0
  128.9426  136.6009  160.6563 C   0  0  0  0  0  0  0  0  0  0  0  0
  130.4968  137.3552  160.4865 Cl  0  0  0  0  0  0  0  0  0  0  0  0
  128.4533  135.7823  159.6452 C   0  0  0  0  0  0  0  0  0  0  0  0
  129.2147  135.5659  158.4887 N   0  0  0  0  0  0  0  0  0  0  0  0
  129.6047  134.2906  158.1505 C   0  0  0  0  0  0  0  0  0  0  0  0
  129.3197  133.1950  158.8510 N   0  0  0  0  0  0  0  0  0  0  0  0
  128.8085  133.1656  159.6748 H   0  0  0  0  0  0  0  0  0  0  0  0
  129.8683  132.1157  158.2099 C   0  0  0  0  0  0  0  0  0  0  0  0
  129.8915  130.7490  158.4728 C   0  0  0  0  0  0  0  0  0  0  0  0
  130.5534  129.8976  157.6148 C   0  0  0  0  0  0  0  0  0  0  0  0
  131.1963  130.3927  156.4897 C   0  0  0  0  0  0  0  0  0  0  0  0
  131.1826  131.7429  156.2144 C   0  0  0  0  0  0  0  0  0  0  0  0
  130.5192  132.6170  157.0707 C   0  0  0  0  0  0  0  0  0  0  0  0
  130.3270  133.9732  157.0779 N   0  0  0  0  0  0  0  0  0  0  0  0
  130.6609  134.5969  156.4143 H   0  0  0  0  0  0  0  0  0  0  0  0
  127.2106  135.1786  159.7809 C   0  0  0  0  0  0  0  0  0  0  0  0
  126.4597  135.3920  160.9212 C   0  0  0  0  0  0  0  0  0  0  0  0
  124.9054  134.6375  161.0906 Cl  0  0  0  0  0  0  0  0  0  0  0  0
  127.6900  135.7319  164.8444 C   0  0  0  0  0  0  0  0  0  0  0  0
  128.3168  135.9807  166.0496 C   0  0  0  0  0  0  0  0  0  0  0  0
  126.9341  137.4091  169.1650 H   0  0  0  0  0  0  0  0  0  0  0  0
  127.7543  135.8330  169.0584 H   0  0  0  0  0  0  0  0  0  0  0  0
  128.3969  137.1000  170.1309 H   0  0  0  0  0  0  0  0  0  0  0  0
  128.9150  138.5082  168.1568 H   0  0  0  0  0  0  0  0  0  0  0  0
  129.7353  136.9322  168.0503 H   0  0  0  0  0  0  0  0  0  0  0  0
  127.0325  139.0294  166.7193 H   0  0  0  0  0  0  0  0  0  0  0  0
  125.9182  138.6016  164.5671 H   0  0  0  0  0  0  0  0  0  0  0  0
  125.2191  136.4039  163.0417 H   0  0  0  0  0  0  0  0  0  0  0  0
  128.5673  137.4591  162.5771 H   0  0  0  0  0  0  0  0  0  0  0  0
  129.4669  136.3153  157.9268 H   0  0  0  0  0  0  0  0  0  0  0  0
  129.3924  130.3570  159.3466 H   0  0  0  0  0  0  0  0  0  0  0  0
  130.5713  128.8374  157.8196 H   0  0  0  0  0  0  0  0  0  0  0  0
  131.7115  129.7151  155.8250 H   0  0  0  0  0  0  0  0  0  0  0  0
  131.6850  132.1217  155.3365 H   0  0  0  0  0  0  0  0  0  0  0  0
  126.8309  134.5421  158.9955 H   0  0  0  0  0  0  0  0  0  0  0  0
  127.8729  134.8050  164.3211 H   0  0  0  0  0  0  0  0  0  0  0  0
  128.9904  135.2480  166.4685 H   0  0  0  0  0  0  0  0  0  0  0  0
  1  2  1  0
  1 30  1  0
  1 31  1  0
  1 32  1  0
  2  3  1  0
  2 33  1  0
  2 34  1  0
  3 29  2  0
  3  4  1  0
  4  5  2  0
  4 35  1  0
  5  6  1  0
  5 36  1  0
  6  7  1  0
  6 28  2  0
  7  8  1  0
  7 37  1  0
  8 26  1  0
  8  9  2  0
  9 10  1  0
  9 38  1  0
 10 11  1  0
 10 12  2  0
 12 13  1  0
 12 25  1  0
 13 14  1  0
 13 39  1  0
 14 23  1  0
 14 15  2  0
 15 16  1  0
 15 17  1  0
 17 22  2  0
 17 18  1  0
 18 19  2  0
 18 40  1  0
 19 20  1  0
 19 41  1  0
 20 21  2  0
 20 42  1  0
 21 22  1  0
 21 43  1  0
 22 23  1  0
 23 24  1  0
 25 26  2  0
 25 44  1  0
 26 27  1  0
 28 29  1  0
 28 45  1  0
 29 46  1  0
M  CHG  1  15   1
M  END
>  <DOCK_score>  (1) 
-46.78257

>  <SMILES>  (1) 
CCc1ccc(Nc2cc(Cl)c(Nc3[nH]c4ccccc4[nH+]3)cc2Cl)cc1

$$$$
