Nc1ccc(N(Cc2ccc(Cc3ccccc3)cc2)[C@H]2CCC[NH+](Cc3ccccc3)C2)cc1O
     RDKit          3D

 72 76  0  0  1  0  0  0  0  0999 V2000
  126.9954  136.4587  165.4742 N   0  0  0  0  0  0  0  0  0  0  0  0
  127.7317  136.7411  164.3138 C   0  0  0  0  0  0  0  0  0  0  0  0
  129.0917  136.9982  164.4006 C   0  0  0  0  0  0  0  0  0  0  0  0
  129.8167  137.2820  163.2587 C   0  0  0  0  0  0  0  0  0  0  0  0
  129.1863  137.3043  162.0217 C   0  0  0  0  0  0  0  0  0  0  0  0
  129.9227  137.5916  160.8663 N   0  0  0  0  0  0  0  0  0  0  0  0
  130.0595  138.9773  160.4107 C   0  0  0  0  0  0  0  0  0  0  0  0
  131.2822  139.5943  161.0393 C   0  0  0  0  0  0  0  0  0  0  0  0
  131.1793  140.2522  162.2508 C   0  0  0  0  0  0  0  0  0  0  0  0
  132.3018  140.8144  162.8293 C   0  0  0  0  0  0  0  0  0  0  0  0
  133.5254  140.7271  162.1920 C   0  0  0  0  0  0  0  0  0  0  0  0
  134.7481  141.3441  162.8208 C   0  0  0  0  0  0  0  0  0  0  0  0
  135.9003  140.3767  162.7332 C   0  0  0  0  0  0  0  0  0  0  0  0
  136.1223  139.4721  163.7546 C   0  0  0  0  0  0  0  0  0  0  0  0
  137.1766  138.5817  163.6723 C   0  0  0  0  0  0  0  0  0  0  0  0
  138.0146  138.6026  162.5730 C   0  0  0  0  0  0  0  0  0  0  0  0
  137.7954  139.5104  161.5540 C   0  0  0  0  0  0  0  0  0  0  0  0
  136.7386  140.3978  161.6343 C   0  0  0  0  0  0  0  0  0  0  0  0
  133.6273  140.0734  160.9783 C   0  0  0  0  0  0  0  0  0  0  0  0
  132.5056  139.5075  160.4017 C   0  0  0  0  0  0  0  0  0  0  0  0
  130.5564  136.5069  160.1129 C   0  0  1  0  0  0  0  0  0  0  0  0
  131.0813  136.9201  159.2517 H   0  0  0  0  0  0  0  0  0  0  0  0
  131.5518  135.7713  161.0149 C   0  0  0  0  0  0  0  0  0  0  0  0
  132.1503  134.5920  160.2427 C   0  0  0  0  0  0  0  0  0  0  0  0
  131.0209  133.6793  159.7602 C   0  0  0  0  0  0  0  0  0  0  0  0
  130.1187  134.4338  158.8819 N   0  0  1  0  0  0  0  0  0  0  0  0
  130.6450  134.8196  158.1124 H   0  0  0  0  0  0  0  0  0  0  0  0
  129.0811  133.5346  158.3595 C   0  0  0  0  0  0  0  0  0  0  0  0
  129.6402  132.7368  157.2097 C   0  0  0  0  0  0  0  0  0  0  0  0
  129.5377  133.2200  155.9187 C   0  0  0  0  0  0  0  0  0  0  0  0
  130.0544  132.4902  154.8645 C   0  0  0  0  0  0  0  0  0  0  0  0
  130.6655  131.2729  155.1005 C   0  0  0  0  0  0  0  0  0  0  0  0
  130.7634  130.7873  156.3909 C   0  0  0  0  0  0  0  0  0  0  0  0
  130.2505  131.5191  157.4456 C   0  0  0  0  0  0  0  0  0  0  0  0
  129.4861  135.5233  159.6352 C   0  0  0  0  0  0  0  0  0  0  0  0
  127.8259  137.0422  161.9302 C   0  0  0  0  0  0  0  0  0  0  0  0
  127.0982  136.7581  163.0736 C   0  0  0  0  0  0  0  0  0  0  0  0
  125.7654  136.5014  162.9862 O   0  0  0  0  0  0  0  0  0  0  0  0
  126.0449  136.2753  165.4128 H   0  0  0  0  0  0  0  0  0  0  0  0
  127.4369  136.4469  166.3378 H   0  0  0  0  0  0  0  0  0  0  0  0
  129.5839  136.9810  165.3619 H   0  0  0  0  0  0  0  0  0  0  0  0
  130.8748  137.4865  163.3285 H   0  0  0  0  0  0  0  0  0  0  0  0
  130.1608  138.9946  159.3256 H   0  0  0  0  0  0  0  0  0  0  0  0
  129.1755  139.5445  160.7022 H   0  0  0  0  0  0  0  0  0  0  0  0
  130.2226  140.3239  162.7466 H   0  0  0  0  0  0  0  0  0  0  0  0
  132.2222  141.3248  163.7779 H   0  0  0  0  0  0  0  0  0  0  0  0
  135.0040  142.2627  162.2927 H   0  0  0  0  0  0  0  0  0  0  0  0
  134.5432  141.5714  163.8669 H   0  0  0  0  0  0  0  0  0  0  0  0
  135.4700  139.4585  164.6152 H   0  0  0  0  0  0  0  0  0  0  0  0
  137.3476  137.8722  164.4683 H   0  0  0  0  0  0  0  0  0  0  0  0
  138.8403  137.9092  162.5104 H   0  0  0  0  0  0  0  0  0  0  0  0
  138.4501  139.5267  160.6952 H   0  0  0  0  0  0  0  0  0  0  0  0
  136.5676  141.1075  160.8383 H   0  0  0  0  0  0  0  0  0  0  0  0
  134.5833  140.0052  160.4803 H   0  0  0  0  0  0  0  0  0  0  0  0
  132.5853  138.9969  159.4532 H   0  0  0  0  0  0  0  0  0  0  0  0
  132.3477  136.4540  161.3121 H   0  0  0  0  0  0  0  0  0  0  0  0
  131.0363  135.4023  161.9017 H   0  0  0  0  0  0  0  0  0  0  0  0
  132.8181  134.0304  160.8962 H   0  0  0  0  0  0  0  0  0  0  0  0
  132.7094  134.9644  159.3843 H   0  0  0  0  0  0  0  0  0  0  0  0
  130.4632  133.3068  160.6195 H   0  0  0  0  0  0  0  0  0  0  0  0
  131.4441  132.8388  159.2101 H   0  0  0  0  0  0  0  0  0  0  0  0
  128.7570  132.8564  159.1489 H   0  0  0  0  0  0  0  0  0  0  0  0
  128.2309  134.1228  158.0142 H   0  0  0  0  0  0  0  0  0  0  0  0
  129.0569  134.1693  155.7340 H   0  0  0  0  0  0  0  0  0  0  0  0
  129.9782  132.8698  153.8563 H   0  0  0  0  0  0  0  0  0  0  0  0
  131.0668  130.7015  154.2765 H   0  0  0  0  0  0  0  0  0  0  0  0
  131.2408  129.8362  156.5753 H   0  0  0  0  0  0  0  0  0  0  0  0
  130.3269  131.1396  158.4539 H   0  0  0  0  0  0  0  0  0  0  0  0
  128.9611  135.1114  160.4971 H   0  0  0  0  0  0  0  0  0  0  0  0
  128.7757  136.0437  158.9929 H   0  0  0  0  0  0  0  0  0  0  0  0
  127.3356  137.0602  160.9680 H   0  0  0  0  0  0  0  0  0  0  0  0
  125.4165  136.5360  162.0850 H   0  0  0  0  0  0  0  0  0  0  0  0
  1  2  1  0
  1 39  1  0
  1 40  1  0
  2 37  2  0
  2  3  1  0
  3  4  2  0
  3 41  1  0
  4  5  1  0
  4 42  1  0
  5  6  1  0
  5 36  2  0
  6  7  1  0
  6 21  1  0
  7  8  1  0
  7 43  1  0
  7 44  1  0
  8 20  1  0
  8  9  2  0
  9 10  1  0
  9 45  1  0
 10 11  2  0
 10 46  1  0
 11 12  1  0
 11 19  1  0
 12 13  1  0
 12 47  1  0
 12 48  1  0
 13 18  1  0
 13 14  2  0
 14 15  1  0
 14 49  1  0
 15 16  2  0
 15 50  1  0
 16 17  1  0
 16 51  1  0
 17 18  2  0
 17 52  1  0
 18 53  1  0
 19 20  2  0
 19 54  1  0
 20 55  1  0
 21 22  1  6
 21 35  1  0
 21 23  1  0
 23 24  1  0
 23 56  1  0
 23 57  1  0
 24 25  1  0
 24 58  1  0
 24 59  1  0
 25 26  1  0
 25 60  1  0
 25 61  1  0
 26 27  1  6
 26 28  1  0
 26 35  1  0
 28 29  1  0
 28 62  1  0
 28 63  1  0
 29 34  1  0
 29 30  2  0
 30 31  1  0
 30 64  1  0
 31 32  2  0
 31 65  1  0
 32 33  1  0
 32 66  1  0
 33 34  2  0
 33 67  1  0
 34 68  1  0
 35 69  1  0
 35 70  1  0
 36 37  1  0
 36 71  1  0
 37 38  1  0
 38 72  1  0
M  CHG  1  26   1
M  END
>  <DOCK_score>  (1) 
-49.7915

>  <SMILES>  (1) 
Nc1ccc(N(Cc2ccc(Cc3ccccc3)cc2)[C@H]2CCC[NH+](Cc3ccccc3)C2)cc1O

$$$$
