Cc1cccc(-c2ccc(C[C@@H](Nc3[nH]cc(-c4ccccc4)[nH+]3)c3ccccc3)cc2)c1
     RDKit          3D

 61 65  0  0  1  0  0  0  0  0999 V2000
  137.7826  137.3382  163.1964 C   0  0  0  0  0  0  0  0  0  0  0  0
  136.9322  138.0898  162.2051 C   0  0  0  0  0  0  0  0  0  0  0  0
  137.5004  139.0699  161.4113 C   0  0  0  0  0  0  0  0  0  0  0  0
  136.7258  139.7633  160.4991 C   0  0  0  0  0  0  0  0  0  0  0  0
  135.3801  139.4809  160.3767 C   0  0  0  0  0  0  0  0  0  0  0  0
  134.8016  138.4986  161.1774 C   0  0  0  0  0  0  0  0  0  0  0  0
  133.3543  138.1950  161.0549 C   0  0  0  0  0  0  0  0  0  0  0  0
  132.6404  137.7345  162.1596 C   0  0  0  0  0  0  0  0  0  0  0  0
  131.2932  137.4587  162.0412 C   0  0  0  0  0  0  0  0  0  0  0  0
  130.6540  137.6286  160.8263 C   0  0  0  0  0  0  0  0  0  0  0  0
  129.1842  137.3203  160.7018 C   0  0  0  0  0  0  0  0  0  0  0  0
  129.0026  135.8543  160.3035 C   0  0  1  0  0  0  0  0  0  0  0  0
  127.9395  135.6311  160.2134 H   0  0  0  0  0  0  0  0  0  0  0  0
  129.6630  135.6120  159.0184 N   0  0  0  0  0  0  0  0  0  0  0  0
  129.6330  134.3492  158.4520 C   0  0  0  0  0  0  0  0  0  0  0  0
  129.0211  133.2561  158.9839 N   0  0  0  0  0  0  0  0  0  0  0  0
  128.5320  133.2219  159.8208 H   0  0  0  0  0  0  0  0  0  0  0  0
  129.2243  132.2101  158.1169 C   0  0  0  0  0  0  0  0  0  0  0  0
  129.9538  132.6935  157.0811 C   0  0  0  0  0  0  0  0  0  0  0  0
  130.4134  131.9207  155.9014 C   0  0  0  0  0  0  0  0  0  0  0  0
  130.0106  132.2941  154.6203 C   0  0  0  0  0  0  0  0  0  0  0  0
  130.4468  131.5754  153.5258 C   0  0  0  0  0  0  0  0  0  0  0  0
  131.2718  130.4784  153.6995 C   0  0  0  0  0  0  0  0  0  0  0  0
  131.6698  130.0999  154.9688 C   0  0  0  0  0  0  0  0  0  0  0  0
  131.2451  130.8151  156.0702 C   0  0  0  0  0  0  0  0  0  0  0  0
  130.1843  134.0105  157.3122 N   0  0  0  0  0  0  0  0  0  0  0  0
  130.6803  134.6055  156.7283 H   0  0  0  0  0  0  0  0  0  0  0  0
  129.6144  134.9678  161.3575 C   0  0  0  0  0  0  0  0  0  0  0  0
  130.9388  134.5855  161.2555 C   0  0  0  0  0  0  0  0  0  0  0  0
  131.5010  133.7755  162.2244 C   0  0  0  0  0  0  0  0  0  0  0  0
  130.7366  133.3413  163.2912 C   0  0  0  0  0  0  0  0  0  0  0  0
  129.4107  133.7194  163.3904 C   0  0  0  0  0  0  0  0  0  0  0  0
  128.8495  134.5325  162.4236 C   0  0  0  0  0  0  0  0  0  0  0  0
  131.3591  138.0802  159.7253 C   0  0  0  0  0  0  0  0  0  0  0  0
  132.7053  138.3642  159.8337 C   0  0  0  0  0  0  0  0  0  0  0  0
  135.5879  137.7994  162.0912 C   0  0  0  0  0  0  0  0  0  0  0  0
  137.7744  137.8615  164.1526 H   0  0  0  0  0  0  0  0  0  0  0  0
  137.3833  136.3327  163.3291 H   0  0  0  0  0  0  0  0  0  0  0  0
  138.8054  137.2768  162.8248 H   0  0  0  0  0  0  0  0  0  0  0  0
  138.5527  139.2943  161.5039 H   0  0  0  0  0  0  0  0  0  0  0  0
  137.1746  140.5272  159.8815 H   0  0  0  0  0  0  0  0  0  0  0  0
  134.7761  140.0235  159.6646 H   0  0  0  0  0  0  0  0  0  0  0  0
  133.1395  137.5974  163.1075 H   0  0  0  0  0  0  0  0  0  0  0  0
  130.7381  137.1051  162.8975 H   0  0  0  0  0  0  0  0  0  0  0  0
  128.6928  137.5006  161.6580 H   0  0  0  0  0  0  0  0  0  0  0  0
  128.7417  137.9614  159.9394 H   0  0  0  0  0  0  0  0  0  0  0  0
  130.1212  136.3365  158.5644 H   0  0  0  0  0  0  0  0  0  0  0  0
  128.8711  131.1966  158.2375 H   0  0  0  0  0  0  0  0  0  0  0  0
  129.3624  133.1472  154.4841 H   0  0  0  0  0  0  0  0  0  0  0  0
  130.1395  131.8669  152.5323 H   0  0  0  0  0  0  0  0  0  0  0  0
  131.6068  129.9158  152.8407 H   0  0  0  0  0  0  0  0  0  0  0  0
  132.3141  129.2430  155.0985 H   0  0  0  0  0  0  0  0  0  0  0  0
  131.5571  130.5189  157.0608 H   0  0  0  0  0  0  0  0  0  0  0  0
  131.5353  134.9220  160.4203 H   0  0  0  0  0  0  0  0  0  0  0  0
  132.5369  133.4798  162.1467 H   0  0  0  0  0  0  0  0  0  0  0  0
  131.1752  132.7063  164.0467 H   0  0  0  0  0  0  0  0  0  0  0  0
  128.8133  133.3799  164.2237 H   0  0  0  0  0  0  0  0  0  0  0  0
  127.8136  134.8279  162.5011 H   0  0  0  0  0  0  0  0  0  0  0  0
  130.8550  138.2113  158.7792 H   0  0  0  0  0  0  0  0  0  0  0  0
  133.2547  138.7171  158.9734 H   0  0  0  0  0  0  0  0  0  0  0  0
  135.1453  137.0341  162.7117 H   0  0  0  0  0  0  0  0  0  0  0  0
  1  2  1  0
  1 37  1  0
  1 38  1  0
  1 39  1  0
  2 36  2  0
  2  3  1  0
  3  4  2  0
  3 40  1  0
  4  5  1  0
  4 41  1  0
  5  6  2  0
  5 42  1  0
  6  7  1  0
  6 36  1  0
  7 35  1  0
  7  8  2  0
  8  9  1  0
  8 43  1  0
  9 10  2  0
  9 44  1  0
 10 11  1  0
 10 34  1  0
 11 12  1  0
 11 45  1  0
 11 46  1  0
 12 13  1  6
 12 14  1  0
 12 28  1  0
 14 47  1  0
 15 14  1  0
 15 26  2  0
 15 16  1  0
 16 17  1  0
 16 18  1  0
 18 19  2  0
 18 48  1  0
 19 20  1  0
 19 26  1  0
 20 25  1  0
 20 21  2  0
 21 22  1  0
 21 49  1  0
 22 23  2  0
 22 50  1  0
 23 24  1  0
 23 51  1  0
 24 25  2  0
 24 52  1  0
 25 53  1  0
 26 27  1  0
 28 33  1  0
 28 29  2  0
 29 30  1  0
 29 54  1  0
 30 31  2  0
 30 55  1  0
 31 32  1  0
 31 56  1  0
 32 33  2  0
 32 57  1  0
 33 58  1  0
 34 35  2  0
 34 59  1  0
 35 60  1  0
 36 61  1  0
M  CHG  1  26   1
M  END
>  <DOCK_score>  (1) 
-60.4561

>  <SMILES>  (1) 
Cc1cccc(-c2ccc(C[C@@H](Nc3[nH]cc(-c4ccccc4)[nH+]3)c3ccccc3)cc2)c1

$$$$
