Cc1cccc(C[C@H](Cc2cccnc2)[NH2+]C2CN(C(c3ccccc3)c3ccccc3)C2)c1
     RDKit          3D

 68 72  0  0  1  0  0  0  0  0999 V2000
  130.9906  129.8570  159.7647 C   0  0  0  0  0  0  0  0  0  0  0  0
  130.9509  130.6735  158.4987 C   0  0  0  0  0  0  0  0  0  0  0  0
  131.5205  130.1800  157.3396 C   0  0  0  0  0  0  0  0  0  0  0  0
  131.4842  130.9290  156.1785 C   0  0  0  0  0  0  0  0  0  0  0  0
  130.8773  132.1712  156.1759 C   0  0  0  0  0  0  0  0  0  0  0  0
  130.3071  132.6642  157.3344 C   0  0  0  0  0  0  0  0  0  0  0  0
  129.6451  134.0181  157.3314 C   0  0  0  0  0  0  0  0  0  0  0  0
  129.7658  134.6478  158.7205 C   0  0  2  0  0  0  0  0  0  0  0  0
  129.2775  134.0063  159.4540 H   0  0  0  0  0  0  0  0  0  0  0  0
  129.0938  136.0225  158.7175 C   0  0  0  0  0  0  0  0  0  0  0  0
  127.6379  135.8690  158.3603 C   0  0  0  0  0  0  0  0  0  0  0  0
  126.6892  135.6679  159.3516 C   0  0  0  0  0  0  0  0  0  0  0  0
  125.3616  135.5320  158.9765 C   0  0  0  0  0  0  0  0  0  0  0  0
  125.0298  135.6010  157.6364 C   0  0  0  0  0  0  0  0  0  0  0  0
  125.9588  135.7933  156.7207 N   0  0  0  0  0  0  0  0  0  0  0  0
  127.2305  135.9324  157.0414 C   0  0  0  0  0  0  0  0  0  0  0  0
  131.1851  134.7975  159.0687 N   0  0  0  0  0  0  0  0  0  0  0  0
  131.6947  133.9829  158.7604 H   0  0  0  0  0  0  0  0  0  0  0  0
  131.5578  135.6186  158.6158 H   0  0  0  0  0  0  0  0  0  0  0  0
  131.3201  134.9374  160.5247 C   0  0  0  0  0  0  0  0  0  0  0  0
  131.0969  136.3734  161.0324 C   0  0  0  0  0  0  0  0  0  0  0  0
  132.2538  136.1327  161.9228 N   0  0  0  0  0  0  0  0  0  0  0  0
  133.1414  137.3027  161.9605 C   0  0  0  0  0  0  0  0  0  0  0  0
  132.5708  138.3360  162.8975 C   0  0  0  0  0  0  0  0  0  0  0  0
  132.8139  139.6788  162.6764 C   0  0  0  0  0  0  0  0  0  0  0  0
  132.2874  140.6269  163.5336 C   0  0  0  0  0  0  0  0  0  0  0  0
  131.5246  140.2316  164.6166 C   0  0  0  0  0  0  0  0  0  0  0  0
  131.2860  138.8886  164.8408 C   0  0  0  0  0  0  0  0  0  0  0  0
  131.8092  137.9408  163.9813 C   0  0  0  0  0  0  0  0  0  0  0  0
  134.5051  136.8832  162.4457 C   0  0  0  0  0  0  0  0  0  0  0  0
  135.6311  137.5561  162.0097 C   0  0  0  0  0  0  0  0  0  0  0  0
  136.8816  137.1736  162.4578 C   0  0  0  0  0  0  0  0  0  0  0  0
  137.0069  136.1130  163.3353 C   0  0  0  0  0  0  0  0  0  0  0  0
  135.8813  135.4366  163.7672 C   0  0  0  0  0  0  0  0  0  0  0  0
  134.6305  135.8216  163.3223 C   0  0  0  0  0  0  0  0  0  0  0  0
  132.7752  135.1011  160.9991 C   0  0  0  0  0  0  0  0  0  0  0  0
  130.3400  131.9134  158.4949 C   0  0  0  0  0  0  0  0  0  0  0  0
  131.8950  130.0971  160.3237 H   0  0  0  0  0  0  0  0  0  0  0  0
  130.1157  130.0869  160.3729 H   0  0  0  0  0  0  0  0  0  0  0  0
  130.9896  128.7964  159.5132 H   0  0  0  0  0  0  0  0  0  0  0  0
  131.9943  129.2095  157.3416 H   0  0  0  0  0  0  0  0  0  0  0  0
  131.9294  130.5436  155.2733 H   0  0  0  0  0  0  0  0  0  0  0  0
  130.8486  132.7563  155.2686 H   0  0  0  0  0  0  0  0  0  0  0  0
  130.1335  134.6597  156.5979 H   0  0  0  0  0  0  0  0  0  0  0  0
  128.5920  133.9070  157.0731 H   0  0  0  0  0  0  0  0  0  0  0  0
  129.1799  136.4711  159.7071 H   0  0  0  0  0  0  0  0  0  0  0  0
  129.5822  136.6640  157.9839 H   0  0  0  0  0  0  0  0  0  0  0  0
  126.9779  135.6181  160.3911 H   0  0  0  0  0  0  0  0  0  0  0  0
  124.5960  135.3747  159.7220 H   0  0  0  0  0  0  0  0  0  0  0  0
  123.9978  135.4957  157.3359 H   0  0  0  0  0  0  0  0  0  0  0  0
  127.9625  136.0935  156.2639 H   0  0  0  0  0  0  0  0  0  0  0  0
  130.7606  134.1829  161.0776 H   0  0  0  0  0  0  0  0  0  0  0  0
  131.2756  137.1390  160.2774 H   0  0  0  0  0  0  0  0  0  0  0  0
  130.1548  136.5099  161.5635 H   0  0  0  0  0  0  0  0  0  0  0  0
  133.2262  137.7268  160.9600 H   0  0  0  0  0  0  0  0  0  0  0  0
  133.4128  139.9873  161.8323 H   0  0  0  0  0  0  0  0  0  0  0  0
  132.4743  141.6761  163.3588 H   0  0  0  0  0  0  0  0  0  0  0  0
  131.1155  140.9721  165.2879 H   0  0  0  0  0  0  0  0  0  0  0  0
  130.6903  138.5799  165.6871 H   0  0  0  0  0  0  0  0  0  0  0  0
  131.6227  136.8915  164.1564 H   0  0  0  0  0  0  0  0  0  0  0  0
  135.5334  138.3826  161.3213 H   0  0  0  0  0  0  0  0  0  0  0  0
  137.7611  137.7018  162.1200 H   0  0  0  0  0  0  0  0  0  0  0  0
  137.9841  135.8125  163.6833 H   0  0  0  0  0  0  0  0  0  0  0  0
  135.9792  134.6078  164.4525 H   0  0  0  0  0  0  0  0  0  0  0  0
  133.7511  135.2931  163.6596 H   0  0  0  0  0  0  0  0  0  0  0  0
  133.1742  134.2213  161.5038 H   0  0  0  0  0  0  0  0  0  0  0  0
  133.4452  135.4928  160.2338 H   0  0  0  0  0  0  0  0  0  0  0  0
  129.8911  132.2970  159.3991 H   0  0  0  0  0  0  0  0  0  0  0  0
  1  2  1  0
  1 38  1  0
  1 39  1  0
  1 40  1  0
  2 37  2  0
  2  3  1  0
  3  4  2  0
  3 41  1  0
  4  5  1  0
  4 42  1  0
  5  6  2  0
  5 43  1  0
  6  7  1  0
  6 37  1  0
  7  8  1  0
  7 44  1  0
  7 45  1  0
  8  9  1  1
  8 10  1  0
  8 17  1  0
 10 11  1  0
 10 46  1  0
 10 47  1  0
 11 16  1  0
 11 12  2  0
 12 13  1  0
 12 48  1  0
 13 14  2  0
 13 49  1  0
 14 15  1  0
 14 50  1  0
 15 16  2  0
 16 51  1  0
 17 18  1  0
 17 19  1  0
 17 20  1  0
 20 36  1  0
 20 21  1  0
 20 52  1  0
 21 22  1  0
 21 53  1  0
 21 54  1  0
 22 23  1  0
 22 36  1  0
 23 24  1  0
 23 30  1  0
 23 55  1  0
 24 29  1  0
 24 25  2  0
 25 26  1  0
 25 56  1  0
 26 27  2  0
 26 57  1  0
 27 28  1  0
 27 58  1  0
 28 29  2  0
 28 59  1  0
 29 60  1  0
 30 35  1  0
 30 31  2  0
 31 32  1  0
 31 61  1  0
 32 33  2  0
 32 62  1  0
 33 34  1  0
 33 63  1  0
 34 35  2  0
 34 64  1  0
 35 65  1  0
 36 66  1  0
 36 67  1  0
 37 68  1  0
M  CHG  1  17   1
M  END
>  <DOCK_score>  (1) 
-57.25021

>  <SMILES>  (1) 
Cc1cccc(C[C@H](Cc2cccnc2)[NH2+]C2CN(C(c3ccccc3)c3ccccc3)C2)c1

$$$$
