CCCNc1ccc(Nc2ccc(Nc3[nH]cc(C)[nH+]3)cc2)cc1
     RDKit          3D

 48 50  0  0  1  0  0  0  0  0999 V2000
  124.6393  135.2374  169.7316 C   0  0  0  0  0  0  0  0  0  0  0  0
  125.4986  134.7586  168.5597 C   0  0  0  0  0  0  0  0  0  0  0  0
  126.9235  135.2921  168.7207 C   0  0  0  0  0  0  0  0  0  0  0  0
  127.7464  134.8337  167.5987 N   0  0  0  0  0  0  0  0  0  0  0  0
  127.4003  135.1836  166.2882 C   0  0  0  0  0  0  0  0  0  0  0  0
  127.8932  134.4463  165.2195 C   0  0  0  0  0  0  0  0  0  0  0  0
  127.5522  134.7915  163.9269 C   0  0  0  0  0  0  0  0  0  0  0  0
  126.7165  135.8763  163.6954 C   0  0  0  0  0  0  0  0  0  0  0  0
  126.3708  136.2265  162.3848 N   0  0  0  0  0  0  0  0  0  0  0  0
  127.2604  135.9718  161.3349 C   0  0  0  0  0  0  0  0  0  0  0  0
  126.8787  135.1440  160.2865 C   0  0  0  0  0  0  0  0  0  0  0  0
  127.7560  134.8932  159.2505 C   0  0  0  0  0  0  0  0  0  0  0  0
  129.0202  135.4684  159.2563 C   0  0  0  0  0  0  0  0  0  0  0  0
  129.9100  135.2140  158.2054 N   0  0  0  0  0  0  0  0  0  0  0  0
  129.8541  134.0072  157.5272 C   0  0  0  0  0  0  0  0  0  0  0  0
  129.4639  132.8152  158.0547 N   0  0  0  0  0  0  0  0  0  0  0  0
  129.1761  132.6546  158.9670 H   0  0  0  0  0  0  0  0  0  0  0  0
  129.5551  131.8805  157.0486 C   0  0  0  0  0  0  0  0  0  0  0  0
  129.9926  132.5252  155.9535 C   0  0  0  0  0  0  0  0  0  0  0  0
  130.2432  131.9023  154.6042 C   0  0  0  0  0  0  0  0  0  0  0  0
  130.1739  133.8185  156.2686 N   0  0  0  0  0  0  0  0  0  0  0  0
  130.4891  134.5055  155.6607 H   0  0  0  0  0  0  0  0  0  0  0  0
  129.4039  136.2916  160.3073 C   0  0  0  0  0  0  0  0  0  0  0  0
  128.5246  136.5471  161.3404 C   0  0  0  0  0  0  0  0  0  0  0  0
  126.2282  136.6171  164.7639 C   0  0  0  0  0  0  0  0  0  0  0  0
  126.5645  136.2682  166.0568 C   0  0  0  0  0  0  0  0  0  0  0  0
  124.6198  136.3270  169.7464 H   0  0  0  0  0  0  0  0  0  0  0  0
  123.6241  134.8574  169.6168 H   0  0  0  0  0  0  0  0  0  0  0  0
  125.0618  134.8687  170.6663 H   0  0  0  0  0  0  0  0  0  0  0  0
  125.0761  135.1272  167.6250 H   0  0  0  0  0  0  0  0  0  0  0  0
  125.5181  133.6690  168.5448 H   0  0  0  0  0  0  0  0  0  0  0  0
  127.3459  134.9235  169.6555 H   0  0  0  0  0  0  0  0  0  0  0  0
  126.9039  136.3818  168.7355 H   0  0  0  0  0  0  0  0  0  0  0  0
  128.5308  134.2877  167.7638 H   0  0  0  0  0  0  0  0  0  0  0  0
  128.5433  133.6029  165.3996 H   0  0  0  0  0  0  0  0  0  0  0  0
  127.9358  134.2182  163.0959 H   0  0  0  0  0  0  0  0  0  0  0  0
  125.5148  136.6456  162.2044 H   0  0  0  0  0  0  0  0  0  0  0  0
  125.8955  134.6970  160.2818 H   0  0  0  0  0  0  0  0  0  0  0  0
  127.4595  134.2494  158.4356 H   0  0  0  0  0  0  0  0  0  0  0  0
  130.5655  135.8828  157.9523 H   0  0  0  0  0  0  0  0  0  0  0  0
  129.3202  130.8291  157.1248 H   0  0  0  0  0  0  0  0  0  0  0  0
  129.3326  131.9503  154.0071 H   0  0  0  0  0  0  0  0  0  0  0  0
  131.0400  132.4452  154.0958 H   0  0  0  0  0  0  0  0  0  0  0  0
  130.5383  130.8611  154.7338 H   0  0  0  0  0  0  0  0  0  0  0  0
  130.3886  136.7353  160.3138 H   0  0  0  0  0  0  0  0  0  0  0  0
  128.8214  137.1905  162.1555 H   0  0  0  0  0  0  0  0  0  0  0  0
  125.5822  137.4637  164.5838 H   0  0  0  0  0  0  0  0  0  0  0  0
  126.1814  136.8417  166.8879 H   0  0  0  0  0  0  0  0  0  0  0  0
  1  2  1  0
  1 27  1  0
  1 28  1  0
  1 29  1  0
  2  3  1  0
  2 30  1  0
  2 31  1  0
  3  4  1  0
  3 32  1  0
  3 33  1  0
  4  5  1  0
  4 34  1  0
  5 26  2  0
  5  6  1  0
  6  7  2  0
  6 35  1  0
  7  8  1  0
  7 36  1  0
  8  9  1  0
  8 25  2  0
  9 10  1  0
  9 37  1  0
 10 24  1  0
 10 11  2  0
 11 12  1  0
 11 38  1  0
 12 13  2  0
 12 39  1  0
 13 14  1  0
 13 23  1  0
 14 40  1  0
 15 14  1  0
 15 21  2  0
 15 16  1  0
 16 17  1  0
 16 18  1  0
 18 19  2  0
 18 41  1  0
 19 20  1  0
 19 21  1  0
 20 42  1  0
 20 43  1  0
 20 44  1  0
 21 22  1  0
 23 24  2  0
 23 45  1  0
 24 46  1  0
 25 26  1  0
 25 47  1  0
 26 48  1  0
M  CHG  1  21   1
M  END
>  <DOCK_score>  (1) 
-51.19138

>  <SMILES>  (1) 
CCCNc1ccc(Nc2ccc(Nc3[nH]cc(C)[nH+]3)cc2)cc1

$$$$
