O[C@@H]1C=C[C@@H]([NH+]=C(NC2CC=CC2)N[C@H]2Cc3cc(Br)cnc3C2)[C@@H]1Cl
     RDKit          3D

 49 52  0  0  1  0  0  0  0  0999 V2000
  125.0597  135.3755  161.9456 O   0  0  0  0  0  0  0  0  0  0  0  0
  126.2605  135.4244  161.1726 C   0  0  2  0  0  0  0  0  0  0  0  0
  126.8486  136.3020  161.4410 H   0  0  0  0  0  0  0  0  0  0  0  0
  125.9361  135.4392  159.6968 C   0  0  0  0  0  0  0  0  0  0  0  0
  126.7067  134.6172  159.0379 C   0  0  0  0  0  0  0  0  0  0  0  0
  127.6735  133.9169  159.9644 C   0  0  1  0  0  0  0  0  0  0  0  0
  127.7183  132.8529  159.7325 H   0  0  0  0  0  0  0  0  0  0  0  0
  129.0057  134.5175  159.8604 N   0  0  0  0  0  0  0  0  0  0  0  0
  129.2510  135.2567  160.4386 H   0  0  0  0  0  0  0  0  0  0  0  0
  129.8615  134.0584  158.9910 C   0  0  0  0  0  0  0  0  0  0  0  0
  129.4157  133.5035  157.8147 N   0  0  0  0  0  0  0  0  0  0  0  0
  130.3776  132.9875  156.8375 C   0  0  0  0  0  0  0  0  0  0  0  0
  129.7543  132.9276  155.4237 C   0  0  0  0  0  0  0  0  0  0  0  0
  130.3158  131.6652  154.8103 C   0  0  0  0  0  0  0  0  0  0  0  0
  130.8255  130.8848  155.7240 C   0  0  0  0  0  0  0  0  0  0  0  0
  130.6885  131.4955  157.0992 C   0  0  0  0  0  0  0  0  0  0  0  0
  131.2097  134.1293  159.2501 N   0  0  0  0  0  0  0  0  0  0  0  0
  131.6938  134.0767  160.6318 C   0  0  1  0  0  0  0  0  0  0  0  0
  131.3978  133.1425  161.1091 H   0  0  0  0  0  0  0  0  0  0  0  0
  133.2260  134.2579  160.6838 C   0  0  0  0  0  0  0  0  0  0  0  0
  133.4875  135.0442  161.9488 C   0  0  0  0  0  0  0  0  0  0  0  0
  134.6565  135.2313  162.6719 C   0  0  0  0  0  0  0  0  0  0  0  0
  134.6103  136.0140  163.8156 C   0  0  0  0  0  0  0  0  0  0  0  0
  136.1707  136.3055  164.8433 Br  0  0  0  0  0  0  0  0  0  0  0  0
  133.4053  136.5792  164.1923 C   0  0  0  0  0  0  0  0  0  0  0  0
  132.3156  136.3797  163.4807 N   0  0  0  0  0  0  0  0  0  0  0  0
  132.3189  135.6394  162.3842 C   0  0  0  0  0  0  0  0  0  0  0  0
  131.1890  135.2929  161.4368 C   0  0  0  0  0  0  0  0  0  0  0  0
  127.0901  134.1360  161.3796 C   0  0  2  0  0  0  0  0  0  0  0  0
  127.8838  134.2948  162.1096 H   0  0  0  0  0  0  0  0  0  0  0  0
  126.0344  132.7573  161.8650 Cl  0  0  0  0  0  0  0  0  0  0  0  0
  124.4885  136.1478  161.8342 H   0  0  0  0  0  0  0  0  0  0  0  0
  125.1674  136.0497  159.2464 H   0  0  0  0  0  0  0  0  0  0  0  0
  126.6598  134.4586  157.9707 H   0  0  0  0  0  0  0  0  0  0  0  0
  128.4644  133.4536  157.6320 H   0  0  0  0  0  0  0  0  0  0  0  0
  131.2903  133.5833  156.8380 H   0  0  0  0  0  0  0  0  0  0  0  0
  128.6680  132.8668  155.4898 H   0  0  0  0  0  0  0  0  0  0  0  0
  130.0520  133.7990  154.8402 H   0  0  0  0  0  0  0  0  0  0  0  0
  130.2979  131.4389  153.7544 H   0  0  0  0  0  0  0  0  0  0  0  0
  131.2845  129.9280  155.5234 H   0  0  0  0  0  0  0  0  0  0  0  0
  131.6210  131.3938  157.6545 H   0  0  0  0  0  0  0  0  0  0  0  0
  129.8685  131.0265  157.6431 H   0  0  0  0  0  0  0  0  0  0  0  0
  131.8405  134.2140  158.5181 H   0  0  0  0  0  0  0  0  0  0  0  0
  133.7204  133.2878  160.7322 H   0  0  0  0  0  0  0  0  0  0  0  0
  133.5708  134.8147  159.8125 H   0  0  0  0  0  0  0  0  0  0  0  0
  135.5823  134.7766  162.3516 H   0  0  0  0  0  0  0  0  0  0  0  0
  133.3577  137.1909  165.0811 H   0  0  0  0  0  0  0  0  0  0  0  0
  130.9854  136.1300  160.7690 H   0  0  0  0  0  0  0  0  0  0  0  0
  130.2924  135.0292  161.9978 H   0  0  0  0  0  0  0  0  0  0  0  0
  1  2  1  0
  1 32  1  0
  2  3  1  1
  2 29  1  0
  2  4  1  0
  4  5  2  0
  4 33  1  0
  5  6  1  0
  5 34  1  0
  6  7  1  6
  6  8  1  0
  6 29  1  0
  8  9  1  0
 10  8  2  0
 10 11  1  0
 10 17  1  0
 11 12  1  0
 11 35  1  0
 12 16  1  0
 12 13  1  0
 12 36  1  0
 13 14  1  0
 13 37  1  0
 13 38  1  0
 14 15  2  0
 14 39  1  0
 15 16  1  0
 15 40  1  0
 16 41  1  0
 16 42  1  0
 17 18  1  0
 17 43  1  0
 18 19  1  1
 18 28  1  0
 18 20  1  0
 20 21  1  0
 20 44  1  0
 20 45  1  0
 21 27  2  0
 21 22  1  0
 22 23  2  0
 22 46  1  0
 23 24  1  0
 23 25  1  0
 25 26  2  0
 25 47  1  0
 26 27  1  0
 27 28  1  0
 28 48  1  0
 28 49  1  0
 29 30  1  1
 29 31  1  0
M  CHG  1   8   1
M  END
>  <DOCK_score>  (1) 
-45.906204

>  <SMILES>  (1) 
O[C@@H]1C=C[C@@H]([NH+]=C(NC2CC=CC2)N[C@H]2Cc3cc(Br)cnc3C2)[C@@H]1Cl

$$$$
