Br[C@H]1C[C@@H](Nc2ccc(-c3n[nH]cc3C[NH2+]C3CCCCC3)o2)C1
     RDKit          3D

 50 53  0  0  1  0  0  0  0  0999 V2000
  128.1887  140.2957  162.6706 Br  0  0  0  0  0  0  0  0  0  0  0  0
  127.8807  138.4975  163.4032 C   0  0  1  0  0  0  0  0  0  0  0  0
  128.3609  138.3451  164.3698 H   0  0  0  0  0  0  0  0  0  0  0  0
  126.4054  138.0646  163.3733 C   0  0  0  0  0  0  0  0  0  0  0  0
  126.9050  136.6687  162.9650 C   0  0  1  0  0  0  0  0  0  0  0  0
  127.1187  136.0152  163.8107 H   0  0  0  0  0  0  0  0  0  0  0  0
  126.0758  136.0242  161.9434 N   0  0  0  0  0  0  0  0  0  0  0  0
  126.6491  135.1337  161.0431 C   0  0  0  0  0  0  0  0  0  0  0  0
  126.0230  134.0786  160.4645 C   0  0  0  0  0  0  0  0  0  0  0  0
  126.9641  133.4530  159.6233 C   0  0  0  0  0  0  0  0  0  0  0  0
  128.1223  134.1551  159.7374 C   0  0  0  0  0  0  0  0  0  0  0  0
  129.3872  133.8583  159.0339 C   0  0  0  0  0  0  0  0  0  0  0  0
  129.5907  132.8685  158.1868 N   0  0  0  0  0  0  0  0  0  0  0  0
  130.9184  132.9397  157.7462 N   0  0  0  0  0  0  0  0  0  0  0  0
  131.3420  132.3355  157.1167 H   0  0  0  0  0  0  0  0  0  0  0  0
  131.5051  133.9989  158.3448 C   0  0  0  0  0  0  0  0  0  0  0  0
  130.5918  134.5838  159.1489 C   0  0  0  0  0  0  0  0  0  0  0  0
  130.8170  135.7992  160.0110 C   0  0  0  0  0  0  0  0  0  0  0  0
  132.2024  136.2614  159.8534 N   0  0  0  0  0  0  0  0  0  0  0  0
  132.8357  135.5278  160.1343 H   0  0  0  0  0  0  0  0  0  0  0  0
  132.3699  136.4986  158.8870 H   0  0  0  0  0  0  0  0  0  0  0  0
  132.4219  137.4462  160.6936 C   0  0  0  0  0  0  0  0  0  0  0  0
  131.8593  138.6824  159.9891 C   0  0  0  0  0  0  0  0  0  0  0  0
  132.0879  139.9164  160.8642 C   0  0  0  0  0  0  0  0  0  0  0  0
  133.5879  140.1029  161.1011 C   0  0  0  0  0  0  0  0  0  0  0  0
  134.1506  138.8667  161.8055 C   0  0  0  0  0  0  0  0  0  0  0  0
  133.9220  137.6327  160.9304 C   0  0  0  0  0  0  0  0  0  0  0  0
  127.9169  135.1734  160.5990 O   0  0  0  0  0  0  0  0  0  0  0  0
  128.1511  137.3673  162.3960 C   0  0  0  0  0  0  0  0  0  0  0  0
  125.8199  138.5622  162.6002 H   0  0  0  0  0  0  0  0  0  0  0  0
  125.9237  138.0871  164.3509 H   0  0  0  0  0  0  0  0  0  0  0  0
  125.1267  136.2188  161.8953 H   0  0  0  0  0  0  0  0  0  0  0  0
  124.9969  133.7779  160.6168 H   0  0  0  0  0  0  0  0  0  0  0  0
  126.7977  132.5816  159.0072 H   0  0  0  0  0  0  0  0  0  0  0  0
  132.5267  134.3204  158.2059 H   0  0  0  0  0  0  0  0  0  0  0  0
  130.6360  135.5429  161.0548 H   0  0  0  0  0  0  0  0  0  0  0  0
  130.1329  136.5916  159.7076 H   0  0  0  0  0  0  0  0  0  0  0  0
  131.9170  137.3118  161.6501 H   0  0  0  0  0  0  0  0  0  0  0  0
  132.3643  138.8167  159.0325 H   0  0  0  0  0  0  0  0  0  0  0  0
  130.7907  138.5495  159.8204 H   0  0  0  0  0  0  0  0  0  0  0  0
  131.5830  139.7820  161.8209 H   0  0  0  0  0  0  0  0  0  0  0  0
  131.6871  140.7970  160.3623 H   0  0  0  0  0  0  0  0  0  0  0  0
  133.7508  140.9820  161.7246 H   0  0  0  0  0  0  0  0  0  0  0  0
  134.0929  140.2372  160.1444 H   0  0  0  0  0  0  0  0  0  0  0  0
  133.6456  138.7323  162.7622 H   0  0  0  0  0  0  0  0  0  0  0  0
  135.2192  138.9996  161.9742 H   0  0  0  0  0  0  0  0  0  0  0  0
  134.3228  136.7520  161.4323 H   0  0  0  0  0  0  0  0  0  0  0  0
  134.4269  137.7671  159.9738 H   0  0  0  0  0  0  0  0  0  0  0  0
  129.0789  136.8273  162.5845 H   0  0  0  0  0  0  0  0  0  0  0  0
  128.0434  137.6732  161.3553 H   0  0  0  0  0  0  0  0  0  0  0  0
  1  2  1  0
  2  3  1  1
  2 29  1  0
  2  4  1  0
  4  5  1  0
  4 30  1  0
  4 31  1  0
  5  6  1  1
  5  7  1  0
  5 29  1  0
  7  8  1  0
  7 32  1  0
  8 28  1  0
  8  9  2  0
  9 10  1  0
  9 33  1  0
 10 11  2  0
 10 34  1  0
 11 12  1  0
 11 28  1  0
 12 17  1  0
 12 13  2  0
 13 14  1  0
 14 15  1  0
 14 16  1  0
 16 17  2  0
 16 35  1  0
 17 18  1  0
 18 19  1  0
 18 36  1  0
 18 37  1  0
 19 20  1  0
 19 21  1  0
 19 22  1  0
 22 27  1  0
 22 23  1  0
 22 38  1  0
 23 24  1  0
 23 39  1  0
 23 40  1  0
 24 25  1  0
 24 41  1  0
 24 42  1  0
 25 26  1  0
 25 43  1  0
 25 44  1  0
 26 27  1  0
 26 45  1  0
 26 46  1  0
 27 47  1  0
 27 48  1  0
 29 49  1  0
 29 50  1  0
M  CHG  1  19   1
M  END
>  <DOCK_score>  (1) 
-44.805965

>  <SMILES>  (1) 
Br[C@H]1C[C@@H](Nc2ccc(-c3n[nH]cc3C[NH2+]C3CCCCC3)o2)C1

$$$$
