CNc1ccc(N(C)C2CC(C)C2)c(Nc2[nH]cc(-c3ccncc3)[nH+]2)c1
     RDKit          3D

 54 57  0  0  1  0  0  0  0  0999 V2000
  125.4101  134.5868  159.6909 C   0  0  0  0  0  0  0  0  0  0  0  0
  125.8609  135.5837  160.6652 N   0  0  0  0  0  0  0  0  0  0  0  0
  127.1805  136.0494  160.6307 C   0  0  0  0  0  0  0  0  0  0  0  0
  127.6070  136.9944  161.5544 C   0  0  0  0  0  0  0  0  0  0  0  0
  128.9113  137.4521  161.5267 C   0  0  0  0  0  0  0  0  0  0  0  0
  129.7941  136.9766  160.5696 C   0  0  0  0  0  0  0  0  0  0  0  0
  131.1161  137.4453  160.5392 N   0  0  0  0  0  0  0  0  0  0  0  0
  131.2349  138.6301  159.6787 C   0  0  0  0  0  0  0  0  0  0  0  0
  131.6055  137.7283  161.8951 C   0  0  2  0  0  0  0  0  0  0  0  0
  133.1386  137.7125  162.0125 C   0  0  0  0  0  0  0  0  0  0  0  0
  132.9495  137.0033  163.3638 C   0  0  2  0  0  0  0  0  0  0  0  0
  133.9627  135.8851  163.6164 C   0  0  0  0  0  0  0  0  0  0  0  0
  131.5994  136.5013  162.8249 C   0  0  0  0  0  0  0  0  0  0  0  0
  129.3690  136.0275  159.6405 C   0  0  0  0  0  0  0  0  0  0  0  0
  130.2606  135.5413  158.6762 N   0  0  0  0  0  0  0  0  0  0  0  0
  130.1173  134.2536  158.1875 C   0  0  0  0  0  0  0  0  0  0  0  0
  129.5986  133.1980  158.8735 N   0  0  0  0  0  0  0  0  0  0  0  0
  129.2664  133.2127  159.7848 H   0  0  0  0  0  0  0  0  0  0  0  0
  129.6330  132.1098  158.0390 C   0  0  0  0  0  0  0  0  0  0  0  0
  130.1714  132.5293  156.8661 C   0  0  0  0  0  0  0  0  0  0  0  0
  130.4054  131.6931  155.6650 C   0  0  0  0  0  0  0  0  0  0  0  0
  129.7908  131.9983  154.4462 C   0  0  0  0  0  0  0  0  0  0  0  0
  130.0409  131.1971  153.3519 C   0  0  0  0  0  0  0  0  0  0  0  0
  130.8378  130.1492  153.4474 N   0  0  0  0  0  0  0  0  0  0  0  0
  131.4323  129.8234  154.5795 C   0  0  0  0  0  0  0  0  0  0  0  0
  131.2423  130.5738  155.7207 C   0  0  0  0  0  0  0  0  0  0  0  0
  130.4532  133.8512  156.9862 N   0  0  0  0  0  0  0  0  0  0  0  0
  130.8433  134.4085  156.2947 H   0  0  0  0  0  0  0  0  0  0  0  0
  128.0618  135.5659  159.6734 C   0  0  0  0  0  0  0  0  0  0  0  0
  125.5218  134.9872  158.6832 H   0  0  0  0  0  0  0  0  0  0  0  0
  126.0111  133.6831  159.7914 H   0  0  0  0  0  0  0  0  0  0  0  0
  124.3622  134.3485  159.8732 H   0  0  0  0  0  0  0  0  0  0  0  0
  125.2448  135.9211  161.3343 H   0  0  0  0  0  0  0  0  0  0  0  0
  126.9199  137.3694  162.2983 H   0  0  0  0  0  0  0  0  0  0  0  0
  129.2415  138.1841  162.2489 H   0  0  0  0  0  0  0  0  0  0  0  0
  132.2807  138.9310  159.6171 H   0  0  0  0  0  0  0  0  0  0  0  0
  130.8656  138.3929  158.6811 H   0  0  0  0  0  0  0  0  0  0  0  0
  130.6464  139.4454  160.0997 H   0  0  0  0  0  0  0  0  0  0  0  0
  131.1429  138.6113  162.3364 H   0  0  0  0  0  0  0  0  0  0  0  0
  133.5804  138.7053  162.0984 H   0  0  0  0  0  0  0  0  0  0  0  0
  133.6292  137.0948  161.2600 H   0  0  0  0  0  0  0  0  0  0  0  0
  132.8558  137.6880  164.2068 H   0  0  0  0  0  0  0  0  0  0  0  0
  134.9691  136.3033  163.6316 H   0  0  0  0  0  0  0  0  0  0  0  0
  133.8898  135.1425  162.8218 H   0  0  0  0  0  0  0  0  0  0  0  0
  133.7510  135.4128  164.5755 H   0  0  0  0  0  0  0  0  0  0  0  0
  131.6670  135.5514  162.2948 H   0  0  0  0  0  0  0  0  0  0  0  0
  130.8003  136.5178  163.5659 H   0  0  0  0  0  0  0  0  0  0  0  0
  130.9786  136.1065  158.3506 H   0  0  0  0  0  0  0  0  0  0  0  0
  129.2965  131.1102  158.2712 H   0  0  0  0  0  0  0  0  0  0  0  0
  129.1340  132.8514  154.3621 H   0  0  0  0  0  0  0  0  0  0  0  0
  129.5745  131.4272  152.4054 H   0  0  0  0  0  0  0  0  0  0  0  0
  132.0768  128.9573  154.6125 H   0  0  0  0  0  0  0  0  0  0  0  0
  131.7326  130.3015  156.6436 H   0  0  0  0  0  0  0  0  0  0  0  0
  127.7298  134.8312  158.9548 H   0  0  0  0  0  0  0  0  0  0  0  0
  1  2  1  0
  1 30  1  0
  1 31  1  0
  1 32  1  0
  2  3  1  0
  2 33  1  0
  3 29  2  0
  3  4  1  0
  4  5  2  0
  4 34  1  0
  5  6  1  0
  5 35  1  0
  6  7  1  0
  6 14  2  0
  7  8  1  0
  7  9  1  0
  8 36  1  0
  8 37  1  0
  8 38  1  0
  9 13  1  0
  9 10  1  0
  9 39  1  1
 10 11  1  0
 10 40  1  0
 10 41  1  0
 11 12  1  0
 11 13  1  0
 11 42  1  1
 12 43  1  0
 12 44  1  0
 12 45  1  0
 13 46  1  0
 13 47  1  0
 14 15  1  0
 14 29  1  0
 15 48  1  0
 16 15  1  0
 16 27  2  0
 16 17  1  0
 17 18  1  0
 17 19  1  0
 19 20  2  0
 19 49  1  0
 20 21  1  0
 20 27  1  0
 21 26  1  0
 21 22  2  0
 22 23  1  0
 22 50  1  0
 23 24  2  0
 23 51  1  0
 24 25  1  0
 25 26  2  0
 25 52  1  0
 26 53  1  0
 27 28  1  0
 29 54  1  0
M  CHG  1  27   1
M  END
>  <DOCK_score>  (1) 
-52.017952

>  <SMILES>  (1) 
CNc1ccc(N(C)C2CC(C)C2)c(Nc2[nH]cc(-c3ccncc3)[nH+]2)c1

$$$$
