Cc1c(N2CC[NH+](C(c3ccccc3)c3ccccc3)CC2)ccc2c1CCC2
     RDKit          3D

 60 64  0  0  0  0  0  0  0  0999 V2000
  133.6740  138.0907  163.5130 C   0  0  0  0  0  0  0  0  0  0  0  0
  134.2269  138.6539  162.2292 C   0  0  0  0  0  0  0  0  0  0  0  0
  133.7529  138.1913  161.0093 C   0  0  0  0  0  0  0  0  0  0  0  0
  132.7643  137.2053  160.9700 N   0  0  0  0  0  0  0  0  0  0  0  0
  133.2699  135.9773  160.3401 C   0  0  0  0  0  0  0  0  0  0  0  0
  132.1783  134.9054  160.3705 C   0  0  0  0  0  0  0  0  0  0  0  0
  130.9933  135.3925  159.6521 N   0  0  0  0  0  0  0  0  0  0  0  0
  131.2427  135.6055  158.6979 H   0  0  0  0  0  0  0  0  0  0  0  0
  129.9523  134.3562  159.6660 C   0  0  0  0  0  0  0  0  0  0  0  0
  128.7363  134.8557  158.9290 C   0  0  0  0  0  0  0  0  0  0  0  0
  127.4786  134.4080  159.2874 C   0  0  0  0  0  0  0  0  0  0  0  0
  126.3628  134.8699  158.6146 C   0  0  0  0  0  0  0  0  0  0  0  0
  126.5058  135.7715  157.5765 C   0  0  0  0  0  0  0  0  0  0  0  0
  127.7640  136.2151  157.2146 C   0  0  0  0  0  0  0  0  0  0  0  0
  128.8793  135.7572  157.8909 C   0  0  0  0  0  0  0  0  0  0  0  0
  130.4724  133.1126  158.9920 C   0  0  0  0  0  0  0  0  0  0  0  0
  130.2955  132.9380  157.6322 C   0  0  0  0  0  0  0  0  0  0  0  0
  130.7770  131.7996  157.0132 C   0  0  0  0  0  0  0  0  0  0  0  0
  131.4259  130.8309  157.7558 C   0  0  0  0  0  0  0  0  0  0  0  0
  131.5981  131.0032  159.1166 C   0  0  0  0  0  0  0  0  0  0  0  0
  131.1214  132.1440  159.7347 C   0  0  0  0  0  0  0  0  0  0  0  0
  130.4855  136.6051  160.3074 C   0  0  0  0  0  0  0  0  0  0  0  0
  131.5630  137.6912  160.2765 C   0  0  0  0  0  0  0  0  0  0  0  0
  134.2645  138.7125  159.8279 C   0  0  0  0  0  0  0  0  0  0  0  0
  135.2408  139.6868  159.8730 C   0  0  0  0  0  0  0  0  0  0  0  0
  135.7128  140.1480  161.0909 C   0  0  0  0  0  0  0  0  0  0  0  0
  135.2053  139.6310  162.2693 C   0  0  0  0  0  0  0  0  0  0  0  0
  135.8795  140.2945  163.4512 C   0  0  0  0  0  0  0  0  0  0  0  0
  136.5302  141.5722  162.8800 C   0  0  0  0  0  0  0  0  0  0  0  0
  136.7623  141.1938  161.4019 C   0  0  0  0  0  0  0  0  0  0  0  0
  134.2668  137.2276  163.8162 H   0  0  0  0  0  0  0  0  0  0  0  0
  133.7164  138.8521  164.2918 H   0  0  0  0  0  0  0  0  0  0  0  0
  132.6392  137.7849  163.3597 H   0  0  0  0  0  0  0  0  0  0  0  0
  133.5461  136.1859  159.3065 H   0  0  0  0  0  0  0  0  0  0  0  0
  134.1439  135.6219  160.8859 H   0  0  0  0  0  0  0  0  0  0  0  0
  131.9119  134.6872  161.4047 H   0  0  0  0  0  0  0  0  0  0  0  0
  132.5464  133.9983  159.8911 H   0  0  0  0  0  0  0  0  0  0  0  0
  129.6830  134.1253  160.6967 H   0  0  0  0  0  0  0  0  0  0  0  0
  127.3672  133.7003  160.0956 H   0  0  0  0  0  0  0  0  0  0  0  0
  125.3799  134.5231  158.8970 H   0  0  0  0  0  0  0  0  0  0  0  0
  125.6344  136.1290  157.0479 H   0  0  0  0  0  0  0  0  0  0  0  0
  127.8758  136.9191  156.4033 H   0  0  0  0  0  0  0  0  0  0  0  0
  129.8623  136.1035  157.6080 H   0  0  0  0  0  0  0  0  0  0  0  0
  129.7846  133.6927  157.0528 H   0  0  0  0  0  0  0  0  0  0  0  0
  130.6421  131.6649  155.9502 H   0  0  0  0  0  0  0  0  0  0  0  0
  131.7981  129.9394  157.2729 H   0  0  0  0  0  0  0  0  0  0  0  0
  132.1048  130.2463  159.6968 H   0  0  0  0  0  0  0  0  0  0  0  0
  131.2555  132.2784  160.7978 H   0  0  0  0  0  0  0  0  0  0  0  0
  130.2278  136.3782  161.3418 H   0  0  0  0  0  0  0  0  0  0  0  0
  129.5986  136.9581  159.7811 H   0  0  0  0  0  0  0  0  0  0  0  0
  131.1917  138.5861  160.7760 H   0  0  0  0  0  0  0  0  0  0  0  0
  131.8112  137.9281  159.2419 H   0  0  0  0  0  0  0  0  0  0  0  0
  133.8992  138.3558  158.8762 H   0  0  0  0  0  0  0  0  0  0  0  0
  135.6384  140.0920  158.9541 H   0  0  0  0  0  0  0  0  0  0  0  0
  136.6412  139.6370  163.8701 H   0  0  0  0  0  0  0  0  0  0  0  0
  135.1421  140.5529  164.2111 H   0  0  0  0  0  0  0  0  0  0  0  0
  135.8520  142.4216  162.9605 H   0  0  0  0  0  0  0  0  0  0  0  0
  137.4745  141.7835  163.3819 H   0  0  0  0  0  0  0  0  0  0  0  0
  136.6281  142.0663  160.7625 H   0  0  0  0  0  0  0  0  0  0  0  0
  137.7612  140.7779  161.2704 H   0  0  0  0  0  0  0  0  0  0  0  0
  1  2  1  0
  1 31  1  0
  1 32  1  0
  1 33  1  0
  2 27  2  0
  2  3  1  0
  3  4  1  0
  3 24  2  0
  4 23  1  0
  4  5  1  0
  5  6  1  0
  5 34  1  0
  5 35  1  0
  6  7  1  0
  6 36  1  0
  6 37  1  0
  7  8  1  0
  7  9  1  0
  7 22  1  0
  9 10  1  0
  9 16  1  0
  9 38  1  0
 10 15  1  0
 10 11  2  0
 11 12  1  0
 11 39  1  0
 12 13  2  0
 12 40  1  0
 13 14  1  0
 13 41  1  0
 14 15  2  0
 14 42  1  0
 15 43  1  0
 16 21  1  0
 16 17  2  0
 17 18  1  0
 17 44  1  0
 18 19  2  0
 18 45  1  0
 19 20  1  0
 19 46  1  0
 20 21  2  0
 20 47  1  0
 21 48  1  0
 22 23  1  0
 22 49  1  0
 22 50  1  0
 23 51  1  0
 23 52  1  0
 24 25  1  0
 24 53  1  0
 25 26  2  0
 25 54  1  0
 26 30  1  0
 26 27  1  0
 27 28  1  0
 28 29  1  0
 28 55  1  0
 28 56  1  0
 29 30  1  0
 29 57  1  0
 29 58  1  0
 30 59  1  0
 30 60  1  0
M  CHG  1   7   1
M  END
>  <DOCK_score>  (1) 
-58.069565

>  <SMILES>  (1) 
Cc1c(N2CC[NH+](C(c3ccccc3)c3ccccc3)CC2)ccc2c1CCC2

$$$$
