CCCc1ccc([C@H](Nc2[nH]cc(-c3cccnc3)[nH+]2)c2cccnc2)cc1
     RDKit          3D

 52 55  0  0  1  0  0  0  0  0999 V2000
  131.5139  142.1161  163.4344 C   0  0  0  0  0  0  0  0  0  0  0  0
  131.1424  140.7020  162.9841 C   0  0  0  0  0  0  0  0  0  0  0  0
  131.0993  140.6482  161.4556 C   0  0  0  0  0  0  0  0  0  0  0  0
  130.7333  139.2552  161.0121 C   0  0  0  0  0  0  0  0  0  0  0  0
  129.4061  138.9139  160.8309 C   0  0  0  0  0  0  0  0  0  0  0  0
  129.0704  137.6362  160.4234 C   0  0  0  0  0  0  0  0  0  0  0  0
  130.0619  136.6996  160.1986 C   0  0  0  0  0  0  0  0  0  0  0  0
  129.6960  135.3068  159.7546 C   0  0  2  0  0  0  0  0  0  0  0  0
  130.0547  134.5854  160.4888 H   0  0  0  0  0  0  0  0  0  0  0  0
  130.3143  135.0301  158.4556 N   0  0  0  0  0  0  0  0  0  0  0  0
  130.1188  133.8042  157.8430 C   0  0  0  0  0  0  0  0  0  0  0  0
  129.3823  132.7756  158.3450 N   0  0  0  0  0  0  0  0  0  0  0  0
  128.9039  132.7698  159.1889 H   0  0  0  0  0  0  0  0  0  0  0  0
  129.4392  131.7482  157.4348 C   0  0  0  0  0  0  0  0  0  0  0  0
  130.2147  132.1751  156.4075 C   0  0  0  0  0  0  0  0  0  0  0  0
  130.5613  131.3966  155.1933 C   0  0  0  0  0  0  0  0  0  0  0  0
  130.2007  131.8608  153.9249 C   0  0  0  0  0  0  0  0  0  0  0  0
  130.5515  131.0998  152.8233 C   0  0  0  0  0  0  0  0  0  0  0  0
  131.2321  129.9106  153.0114 C   0  0  0  0  0  0  0  0  0  0  0  0
  131.5546  129.4956  154.2212 N   0  0  0  0  0  0  0  0  0  0  0  0
  131.2467  130.1881  155.2988 C   0  0  0  0  0  0  0  0  0  0  0  0
  130.6170  133.4404  156.6866 N   0  0  0  0  0  0  0  0  0  0  0  0
  131.1833  133.9883  156.1207 H   0  0  0  0  0  0  0  0  0  0  0  0
  128.1981  135.1959  159.6318 C   0  0  0  0  0  0  0  0  0  0  0  0
  127.5683  135.4906  158.4321 C   0  0  0  0  0  0  0  0  0  0  0  0
  126.1889  135.3704  158.3639 C   0  0  0  0  0  0  0  0  0  0  0  0
  125.4912  134.9730  159.4890 C   0  0  0  0  0  0  0  0  0  0  0  0
  126.1230  134.7056  160.6150 N   0  0  0  0  0  0  0  0  0  0  0  0
  127.4343  134.8049  160.7150 C   0  0  0  0  0  0  0  0  0  0  0  0
  131.3891  137.0411  160.3794 C   0  0  0  0  0  0  0  0  0  0  0  0
  131.7248  138.3190  160.7859 C   0  0  0  0  0  0  0  0  0  0  0  0
  130.7688  142.8218  163.0669 H   0  0  0  0  0  0  0  0  0  0  0  0
  131.5447  142.1544  164.5233 H   0  0  0  0  0  0  0  0  0  0  0  0
  132.4928  142.3797  163.0338 H   0  0  0  0  0  0  0  0  0  0  0  0
  130.1636  140.4383  163.3847 H   0  0  0  0  0  0  0  0  0  0  0  0
  131.8873  139.9962  163.3515 H   0  0  0  0  0  0  0  0  0  0  0  0
  132.0780  140.9117  161.0549 H   0  0  0  0  0  0  0  0  0  0  0  0
  130.3543  141.3540  161.0882 H   0  0  0  0  0  0  0  0  0  0  0  0
  128.6311  139.6440  161.0118 H   0  0  0  0  0  0  0  0  0  0  0  0
  128.0334  137.3695  160.2822 H   0  0  0  0  0  0  0  0  0  0  0  0
  130.8607  135.7058  158.0247 H   0  0  0  0  0  0  0  0  0  0  0  0
  128.9612  130.7838  157.5224 H   0  0  0  0  0  0  0  0  0  0  0  0
  129.6653  132.7914  153.8075 H   0  0  0  0  0  0  0  0  0  0  0  0
  130.2925  131.4290  151.8278 H   0  0  0  0  0  0  0  0  0  0  0  0
  131.5040  129.3124  152.1544 H   0  0  0  0  0  0  0  0  0  0  0  0
  131.5283  129.8157  156.2728 H   0  0  0  0  0  0  0  0  0  0  0  0
  128.1392  135.8027  157.5699 H   0  0  0  0  0  0  0  0  0  0  0  0
  125.6657  135.5882  157.4445 H   0  0  0  0  0  0  0  0  0  0  0  0
  124.4161  134.8801  159.4452 H   0  0  0  0  0  0  0  0  0  0  0  0
  127.9168  134.5776  161.6539 H   0  0  0  0  0  0  0  0  0  0  0  0
  132.1638  136.3097  160.2027 H   0  0  0  0  0  0  0  0  0  0  0  0
  132.7619  138.5858  160.9271 H   0  0  0  0  0  0  0  0  0  0  0  0
  1  2  1  0
  1 32  1  0
  1 33  1  0
  1 34  1  0
  2  3  1  0
  2 35  1  0
  2 36  1  0
  3  4  1  0
  3 37  1  0
  3 38  1  0
  4 31  2  0
  4  5  1  0
  5  6  2  0
  5 39  1  0
  6  7  1  0
  6 40  1  0
  7  8  1  0
  7 30  2  0
  8  9  1  1
  8 10  1  0
  8 24  1  0
 10 41  1  0
 11 10  1  0
 11 22  2  0
 11 12  1  0
 12 13  1  0
 12 14  1  0
 14 15  2  0
 14 42  1  0
 15 16  1  0
 15 22  1  0
 16 21  1  0
 16 17  2  0
 17 18  1  0
 17 43  1  0
 18 19  2  0
 18 44  1  0
 19 20  1  0
 19 45  1  0
 20 21  2  0
 21 46  1  0
 22 23  1  0
 24 29  1  0
 24 25  2  0
 25 26  1  0
 25 47  1  0
 26 27  2  0
 26 48  1  0
 27 28  1  0
 27 49  1  0
 28 29  2  0
 29 50  1  0
 30 31  1  0
 30 51  1  0
 31 52  1  0
M  CHG  1  22   1
M  END
>  <DOCK_score>  (1) 
-56.121399

>  <SMILES>  (1) 
CCCc1ccc([C@H](Nc2[nH]cc(-c3cccnc3)[nH+]2)c2cccnc2)cc1

$$$$
