CNC(=[NH2+])N[C@H]1C[C@H]1N[C@H]1c2ccccc2-c2ccc(-c3nc(-c4ccc(O)cc4)c[nH]3)cc21
     RDKit          3D

 61 66  0  0  1  0  0  0  0  0999 V2000
  132.6907  134.1790  161.9532 C   0  0  0  0  0  0  0  0  0  0  0  0
  133.0195  135.0672  160.8355 N   0  0  0  0  0  0  0  0  0  0  0  0
  133.1629  136.4177  161.0498 C   0  0  0  0  0  0  0  0  0  0  0  0
  133.0068  136.9076  162.2474 N   0  0  0  0  0  0  0  0  0  0  0  0
  132.7893  136.3196  162.9876 H   0  0  0  0  0  0  0  0  0  0  0  0
  133.1081  137.8604  162.3988 H   0  0  0  0  0  0  0  0  0  0  0  0
  133.4712  137.2512  160.0009 N   0  0  0  0  0  0  0  0  0  0  0  0
  133.6241  138.6902  160.2293 C   0  0  1  0  0  0  0  0  0  0  0  0
  134.4055  138.9739  160.9343 H   0  0  0  0  0  0  0  0  0  0  0  0
  133.3671  139.6246  159.0454 C   0  0  0  0  0  0  0  0  0  0  0  0
  132.3588  139.5495  160.1936 C   0  0  1  0  0  0  0  0  0  0  0  0
  132.3076  140.3985  160.8753 H   0  0  0  0  0  0  0  0  0  0  0  0
  131.0835  138.8686  159.9330 N   0  0  0  0  0  0  0  0  0  0  0  0
  130.5727  138.2235  161.1501 C   0  0  1  0  0  0  0  0  0  0  0  0
  131.3918  137.7656  161.7047 H   0  0  0  0  0  0  0  0  0  0  0  0
  129.8613  139.2351  162.0146 C   0  0  0  0  0  0  0  0  0  0  0  0
  130.2904  140.3926  162.6289 C   0  0  0  0  0  0  0  0  0  0  0  0
  129.4065  141.1469  163.3801 C   0  0  0  0  0  0  0  0  0  0  0  0
  128.0908  140.7413  163.5173 C   0  0  0  0  0  0  0  0  0  0  0  0
  127.6527  139.5848  162.9070 C   0  0  0  0  0  0  0  0  0  0  0  0
  128.5391  138.8190  162.1463 C   0  0  0  0  0  0  0  0  0  0  0  0
  128.3399  137.5559  161.3942 C   0  0  0  0  0  0  0  0  0  0  0  0
  127.2054  136.7575  161.2249 C   0  0  0  0  0  0  0  0  0  0  0  0
  127.2738  135.6108  160.4679 C   0  0  0  0  0  0  0  0  0  0  0  0
  128.4783  135.2389  159.8663 C   0  0  0  0  0  0  0  0  0  0  0  0
  128.5516  134.0066  159.0535 C   0  0  0  0  0  0  0  0  0  0  0  0
  129.3525  133.8091  158.0311 N   0  0  0  0  0  0  0  0  0  0  0  0
  129.1428  132.5758  157.5370 C   0  0  0  0  0  0  0  0  0  0  0  0
  129.8435  131.9708  156.3773 C   0  0  0  0  0  0  0  0  0  0  0  0
  130.5866  130.8033  156.5419 C   0  0  0  0  0  0  0  0  0  0  0  0
  131.2328  130.2406  155.4610 C   0  0  0  0  0  0  0  0  0  0  0  0
  131.1523  130.8418  154.2125 C   0  0  0  0  0  0  0  0  0  0  0  0
  131.7939  130.2876  153.1503 O   0  0  0  0  0  0  0  0  0  0  0  0
  130.4172  132.0074  154.0464 C   0  0  0  0  0  0  0  0  0  0  0  0
  129.7645  132.5720  155.1225 C   0  0  0  0  0  0  0  0  0  0  0  0
  128.1720  131.9820  158.2825 C   0  0  0  0  0  0  0  0  0  0  0  0
  127.7980  132.8837  159.2397 N   0  0  0  0  0  0  0  0  0  0  0  0
  127.1234  132.7502  159.9238 H   0  0  0  0  0  0  0  0  0  0  0  0
  129.6146  136.0324  160.0397 C   0  0  0  0  0  0  0  0  0  0  0  0
  129.5409  137.1817  160.7922 C   0  0  0  0  0  0  0  0  0  0  0  0
  132.6185  133.1529  161.5928 H   0  0  0  0  0  0  0  0  0  0  0  0
  133.4720  134.2439  162.7107 H   0  0  0  0  0  0  0  0  0  0  0  0
  131.7374  134.4794  162.3880 H   0  0  0  0  0  0  0  0  0  0  0  0
  133.1357  134.7026  159.9442 H   0  0  0  0  0  0  0  0  0  0  0  0
  133.5874  136.8865  159.1096 H   0  0  0  0  0  0  0  0  0  0  0  0
  133.0842  139.1688  158.0965 H   0  0  0  0  0  0  0  0  0  0  0  0
  133.9795  140.5233  158.9714 H   0  0  0  0  0  0  0  0  0  0  0  0
  131.1769  138.2010  159.1821 H   0  0  0  0  0  0  0  0  0  0  0  0
  131.3170  140.7111  162.5232 H   0  0  0  0  0  0  0  0  0  0  0  0
  129.7442  142.0532  163.8606 H   0  0  0  0  0  0  0  0  0  0  0  0
  127.4042  141.3327  164.1050 H   0  0  0  0  0  0  0  0  0  0  0  0
  126.6250  139.2718  163.0169 H   0  0  0  0  0  0  0  0  0  0  0  0
  126.2727  137.0417  161.6893 H   0  0  0  0  0  0  0  0  0  0  0  0
  126.3947  134.9967  160.3392 H   0  0  0  0  0  0  0  0  0  0  0  0
  130.6531  130.3374  157.5140 H   0  0  0  0  0  0  0  0  0  0  0  0
  131.8056  129.3337  155.5871 H   0  0  0  0  0  0  0  0  0  0  0  0
  131.6803  130.7762  152.3235 H   0  0  0  0  0  0  0  0  0  0  0  0
  130.3566  132.4732  153.0738 H   0  0  0  0  0  0  0  0  0  0  0  0
  129.1930  133.4791  154.9928 H   0  0  0  0  0  0  0  0  0  0  0  0
  127.7729  130.9880  158.1445 H   0  0  0  0  0  0  0  0  0  0  0  0
  130.5490  135.7461  159.5803 H   0  0  0  0  0  0  0  0  0  0  0  0
  1  2  1  0
  1 41  1  0
  1 42  1  0
  1 43  1  0
  2  3  1  0
  2 44  1  0
  3  4  2  0
  3  7  1  0
  4  5  1  0
  4  6  1  0
  7  8  1  0
  7 45  1  0
  8  9  1  1
  8 11  1  0
  8 10  1  0
 10 11  1  0
 10 46  1  0
 10 47  1  0
 11 12  1  1
 11 13  1  0
 13 14  1  0
 13 48  1  0
 14 15  1  1
 14 40  1  0
 14 16  1  0
 16 21  1  0
 16 17  2  0
 17 18  1  0
 17 49  1  0
 18 19  2  0
 18 50  1  0
 19 20  1  0
 19 51  1  0
 20 21  2  0
 20 52  1  0
 21 22  1  0
 22 40  2  0
 22 23  1  0
 23 24  2  0
 23 53  1  0
 24 25  1  0
 24 54  1  0
 25 26  1  0
 25 39  2  0
 26 37  1  0
 26 27  2  0
 27 28  1  0
 28 29  1  0
 28 36  2  0
 29 35  1  0
 29 30  2  0
 30 31  1  0
 30 55  1  0
 31 32  2  0
 31 56  1  0
 32 33  1  0
 32 34  1  0
 33 57  1  0
 34 35  2  0
 34 58  1  0
 35 59  1  0
 36 37  1  0
 36 60  1  0
 37 38  1  0
 39 40  1  0
 39 61  1  0
M  CHG  1   4   1
M  END
>  <DOCK_score>  (1) 
-56.885235

>  <SMILES>  (1) 
CNC(=[NH2+])N[C@H]1C[C@H]1N[C@H]1c2ccccc2-c2ccc(-c3nc(-c4ccc(O)cc4)c[nH]3)cc21

$$$$
