Cc1cc(CCN2CC[NH+](CCC3=CC(CO)C=C[C@H]3CO)CC2)no1
     RDKit          3D

 58 60  0  0  1  0  0  0  0  0999 V2000
  134.3342  140.0277  166.3216 C   0  0  0  0  0  0  0  0  0  0  0  0
  134.4104  140.1570  164.8221 C   0  0  0  0  0  0  0  0  0  0  0  0
  135.3561  139.6278  164.0096 C   0  0  0  0  0  0  0  0  0  0  0  0
  134.9652  140.0416  162.7155 C   0  0  0  0  0  0  0  0  0  0  0  0
  135.6669  139.7320  161.4182 C   0  0  0  0  0  0  0  0  0  0  0  0
  134.6424  139.6851  160.2827 C   0  0  0  0  0  0  0  0  0  0  0  0
  133.6481  138.6406  160.5632 N   0  0  0  0  0  0  0  0  0  0  0  0
  132.3880  138.9097  159.8562 C   0  0  0  0  0  0  0  0  0  0  0  0
  131.3624  137.8341  160.2209 C   0  0  0  0  0  0  0  0  0  0  0  0
  131.8827  136.5132  159.8441 N   0  0  0  0  0  0  0  0  0  0  0  0
  132.0660  136.4947  158.8521 H   0  0  0  0  0  0  0  0  0  0  0  0
  130.8903  135.4830  160.1779 C   0  0  0  0  0  0  0  0  0  0  0  0
  129.8129  135.4418  159.0924 C   0  0  0  0  0  0  0  0  0  0  0  0
  128.7948  134.3849  159.4348 C   0  0  0  0  0  0  0  0  0  0  0  0
  127.5578  134.7438  159.5994 C   0  0  0  0  0  0  0  0  0  0  0  0
  126.4681  133.7725  159.9410 C   0  0  2  0  0  0  0  0  0  0  0  0
  125.5280  134.4129  160.9641 C   0  0  0  0  0  0  0  0  0  0  0  0
  124.9570  135.5995  160.4091 O   0  0  0  0  0  0  0  0  0  0  0  0
  127.0306  132.5071  160.5150 C   0  0  0  0  0  0  0  0  0  0  0  0
  128.2674  132.1481  160.3504 C   0  0  0  0  0  0  0  0  0  0  0  0
  129.2538  132.9642  159.5702 C   0  0  1  0  0  0  0  0  0  0  0  0
  130.2157  132.9476  160.0825 H   0  0  0  0  0  0  0  0  0  0  0  0
  129.4174  132.3550  158.1763 C   0  0  0  0  0  0  0  0  0  0  0  0
  130.6644  132.7729  157.6171 O   0  0  0  0  0  0  0  0  0  0  0  0
  133.1279  136.2488  160.5768 C   0  0  0  0  0  0  0  0  0  0  0  0
  134.1684  137.3109  160.2148 C   0  0  0  0  0  0  0  0  0  0  0  0
  133.8820  140.7478  162.8670 N   0  0  0  0  0  0  0  0  0  0  0  0
  133.5556  140.8183  164.0292 O   0  0  0  0  0  0  0  0  0  0  0  0
  134.8805  140.8489  166.7854 H   0  0  0  0  0  0  0  0  0  0  0  0
  133.2912  140.0616  166.6366 H   0  0  0  0  0  0  0  0  0  0  0  0
  134.7753  139.0792  166.6274 H   0  0  0  0  0  0  0  0  0  0  0  0
  136.2112  139.0290  164.2864 H   0  0  0  0  0  0  0  0  0  0  0  0
  136.1664  138.7664  161.4969 H   0  0  0  0  0  0  0  0  0  0  0  0
  136.4045  140.5069  161.2101 H   0  0  0  0  0  0  0  0  0  0  0  0
  135.1500  139.4611  159.3446 H   0  0  0  0  0  0  0  0  0  0  0  0
  134.1428  140.6506  160.2041 H   0  0  0  0  0  0  0  0  0  0  0  0
  132.5640  138.8946  158.7807 H   0  0  0  0  0  0  0  0  0  0  0  0
  132.0082  139.8885  160.1488 H   0  0  0  0  0  0  0  0  0  0  0  0
  130.4314  138.0238  159.6866 H   0  0  0  0  0  0  0  0  0  0  0  0
  131.1764  137.8587  161.2946 H   0  0  0  0  0  0  0  0  0  0  0  0
  130.4303  135.7190  161.1376 H   0  0  0  0  0  0  0  0  0  0  0  0
  131.3813  134.5117  160.2395 H   0  0  0  0  0  0  0  0  0  0  0  0
  130.2729  135.2060  158.1328 H   0  0  0  0  0  0  0  0  0  0  0  0
  129.3219  136.4129  159.0309 H   0  0  0  0  0  0  0  0  0  0  0  0
  127.3028  135.7870  159.4851 H   0  0  0  0  0  0  0  0  0  0  0  0
  125.9046  133.5359  159.0385 H   0  0  0  0  0  0  0  0  0  0  0  0
  124.7332  133.7109  161.2164 H   0  0  0  0  0  0  0  0  0  0  0  0
  126.0884  134.6659  161.8641 H   0  0  0  0  0  0  0  0  0  0  0  0
  124.3489  136.0589  161.0042 H   0  0  0  0  0  0  0  0  0  0  0  0
  126.3788  131.8660  161.0900 H   0  0  0  0  0  0  0  0  0  0  0  0
  128.6000  131.2215  160.7944 H   0  0  0  0  0  0  0  0  0  0  0  0
  128.6015  132.6894  157.5355 H   0  0  0  0  0  0  0  0  0  0  0  0
  129.3988  131.2676  158.2505 H   0  0  0  0  0  0  0  0  0  0  0  0
  130.8353  132.4235  156.7319 H   0  0  0  0  0  0  0  0  0  0  0  0
  132.9328  136.2817  161.6488 H   0  0  0  0  0  0  0  0  0  0  0  0
  133.5063  135.2629  160.3065 H   0  0  0  0  0  0  0  0  0  0  0  0
  134.3738  137.2695  159.1452 H   0  0  0  0  0  0  0  0  0  0  0  0
  135.0881  137.1236  160.7693 H   0  0  0  0  0  0  0  0  0  0  0  0
  1  2  1  0
  1 29  1  0
  1 30  1  0
  1 31  1  0
  2 28  1  0
  2  3  2  0
  3  4  1  0
  3 32  1  0
  4  5  1  0
  4 27  2  0
  5  6  1  0
  5 33  1  0
  5 34  1  0
  6  7  1  0
  6 35  1  0
  6 36  1  0
  7 26  1  0
  7  8  1  0
  8  9  1  0
  8 37  1  0
  8 38  1  0
  9 10  1  0
  9 39  1  0
  9 40  1  0
 10 11  1  0
 10 12  1  0
 10 25  1  0
 12 13  1  0
 12 41  1  0
 12 42  1  0
 13 14  1  0
 13 43  1  0
 13 44  1  0
 14 21  1  0
 14 15  2  0
 15 16  1  0
 15 45  1  0
 16 17  1  0
 16 19  1  0
 16 46  1  6
 17 18  1  0
 17 47  1  0
 17 48  1  0
 18 49  1  0
 19 20  2  0
 19 50  1  0
 20 21  1  0
 20 51  1  0
 21 22  1  1
 21 23  1  0
 23 24  1  0
 23 52  1  0
 23 53  1  0
 24 54  1  0
 25 26  1  0
 25 55  1  0
 25 56  1  0
 26 57  1  0
 26 58  1  0
 27 28  1  0
M  CHG  1  10   1
M  END
>  <DOCK_score>  (1) 
-41.546074

>  <SMILES>  (1) 
Cc1cc(CCN2CC[NH+](CCC3=CC(CO)C=C[C@H]3CO)CC2)no1

$$$$
