Nc1ccc(-c2c[nH]c(N[C@H](CCc3cccc4ccccc34)Cc3cccc4ccccc34)[nH+]2)cc1
     RDKit          3D

 68 73  0  0  1  0  0  0  0  0999 V2000
  123.5013  134.9711  163.9252 N   0  0  0  0  0  0  0  0  0  0  0  0
  124.5997  135.1082  163.0730 C   0  0  0  0  0  0  0  0  0  0  0  0
  125.5758  136.0593  163.3464 C   0  0  0  0  0  0  0  0  0  0  0  0
  126.6608  136.1961  162.5065 C   0  0  0  0  0  0  0  0  0  0  0  0
  126.7782  135.3798  161.3826 C   0  0  0  0  0  0  0  0  0  0  0  0
  127.9447  135.5251  160.4775 C   0  0  0  0  0  0  0  0  0  0  0  0
  127.9577  135.2713  159.1457 C   0  0  0  0  0  0  0  0  0  0  0  0
  129.2317  135.5358  158.7018 N   0  0  0  0  0  0  0  0  0  0  0  0
  129.5525  135.4483  157.7906 H   0  0  0  0  0  0  0  0  0  0  0  0
  129.9593  135.9438  159.7769 C   0  0  0  0  0  0  0  0  0  0  0  0
  131.2950  136.3071  159.7556 N   0  0  0  0  0  0  0  0  0  0  0  0
  132.1303  136.0967  160.9406 C   0  0  2  0  0  0  0  0  0  0  0  0
  131.5592  136.3427  161.8359 H   0  0  0  0  0  0  0  0  0  0  0  0
  133.3652  136.9965  160.8603 C   0  0  0  0  0  0  0  0  0  0  0  0
  132.9263  138.4609  160.7993 C   0  0  0  0  0  0  0  0  0  0  0  0
  134.1427  139.3470  160.7202 C   0  0  0  0  0  0  0  0  0  0  0  0
  134.6619  139.6898  159.5093 C   0  0  0  0  0  0  0  0  0  0  0  0
  135.7856  140.5084  159.4164 C   0  0  0  0  0  0  0  0  0  0  0  0
  136.3978  140.9878  160.5337 C   0  0  0  0  0  0  0  0  0  0  0  0
  135.8910  140.6550  161.8012 C   0  0  0  0  0  0  0  0  0  0  0  0
  136.4952  141.1317  162.9772 C   0  0  0  0  0  0  0  0  0  0  0  0
  135.9758  140.7892  164.1874 C   0  0  0  0  0  0  0  0  0  0  0  0
  134.8515  139.9707  164.2805 C   0  0  0  0  0  0  0  0  0  0  0  0
  134.2400  139.4905  163.1635 C   0  0  0  0  0  0  0  0  0  0  0  0
  134.7473  139.8230  161.8957 C   0  0  0  0  0  0  0  0  0  0  0  0
  132.5693  134.6324  161.0017 C   0  0  0  0  0  0  0  0  0  0  0  0
  131.3528  133.7462  161.0809 C   0  0  0  0  0  0  0  0  0  0  0  0
  130.8308  133.4076  162.2915 C   0  0  0  0  0  0  0  0  0  0  0  0
  129.7064  132.5898  162.3843 C   0  0  0  0  0  0  0  0  0  0  0  0
  129.0975  132.1059  161.2673 C   0  0  0  0  0  0  0  0  0  0  0  0
  129.6078  132.4339  159.9999 C   0  0  0  0  0  0  0  0  0  0  0  0
  129.0061  131.9536  158.8240 C   0  0  0  0  0  0  0  0  0  0  0  0
  129.5183  132.3058  157.6133 C   0  0  0  0  0  0  0  0  0  0  0  0
  130.6432  133.1237  157.5205 C   0  0  0  0  0  0  0  0  0  0  0  0
  131.2553  133.6031  158.6374 C   0  0  0  0  0  0  0  0  0  0  0  0
  130.7484  133.2701  159.9054 C   0  0  0  0  0  0  0  0  0  0  0  0
  129.1884  135.9306  160.8370 N   0  0  0  0  0  0  0  0  0  0  0  0
  129.4628  136.1742  161.7349 H   0  0  0  0  0  0  0  0  0  0  0  0
  125.7951  134.4306  161.1074 C   0  0  0  0  0  0  0  0  0  0  0  0
  124.7150  134.2930  161.9535 C   0  0  0  0  0  0  0  0  0  0  0  0
  123.4205  135.5398  164.7074 H   0  0  0  0  0  0  0  0  0  0  0  0
  122.8198  134.3080  163.7356 H   0  0  0  0  0  0  0  0  0  0  0  0
  125.4843  136.6917  164.2171 H   0  0  0  0  0  0  0  0  0  0  0  0
  127.4193  136.9350  162.7193 H   0  0  0  0  0  0  0  0  0  0  0  0
  127.1266  134.9268  158.5481 H   0  0  0  0  0  0  0  0  0  0  0  0
  131.6777  136.7010  158.9561 H   0  0  0  0  0  0  0  0  0  0  0  0
  133.9362  136.7506  159.9650 H   0  0  0  0  0  0  0  0  0  0  0  0
  133.9868  136.8398  161.7419 H   0  0  0  0  0  0  0  0  0  0  0  0
  132.3553  138.7066  161.6946 H   0  0  0  0  0  0  0  0  0  0  0  0
  132.3048  138.6174  159.9176 H   0  0  0  0  0  0  0  0  0  0  0  0
  134.1954  139.3224  158.6072 H   0  0  0  0  0  0  0  0  0  0  0  0
  136.1773  140.7656  158.4433 H   0  0  0  0  0  0  0  0  0  0  0  0
  137.2660  141.6242  160.4461 H   0  0  0  0  0  0  0  0  0  0  0  0
  137.3673  141.7661  162.9206 H   0  0  0  0  0  0  0  0  0  0  0  0
  136.4420  141.1568  165.0897 H   0  0  0  0  0  0  0  0  0  0  0  0
  134.4599  139.7134  165.2535 H   0  0  0  0  0  0  0  0  0  0  0  0
  133.3697  138.8569  163.2509 H   0  0  0  0  0  0  0  0  0  0  0  0
  133.1402  134.3865  160.1063 H   0  0  0  0  0  0  0  0  0  0  0  0
  133.1907  134.4759  161.8834 H   0  0  0  0  0  0  0  0  0  0  0  0
  131.2946  133.7785  163.1934 H   0  0  0  0  0  0  0  0  0  0  0  0
  129.3124  132.3358  163.3574 H   0  0  0  0  0  0  0  0  0  0  0  0
  128.2269  131.4727  161.3546 H   0  0  0  0  0  0  0  0  0  0  0  0
  128.1344  131.3186  158.8806 H   0  0  0  0  0  0  0  0  0  0  0  0
  129.0513  131.9392  156.7112 H   0  0  0  0  0  0  0  0  0  0  0  0
  131.0347  133.3811  156.5474 H   0  0  0  0  0  0  0  0  0  0  0  0
  132.1261  134.2358  158.5499 H   0  0  0  0  0  0  0  0  0  0  0  0
  125.8819  133.8002  160.2348 H   0  0  0  0  0  0  0  0  0  0  0  0
  123.9554  133.5547  161.7431 H   0  0  0  0  0  0  0  0  0  0  0  0
  1  2  1  0
  1 41  1  0
  1 42  1  0
  2 40  2  0
  2  3  1  0
  3  4  2  0
  3 43  1  0
  4  5  1  0
  4 44  1  0
  5  6  1  0
  5 39  2  0
  6 37  1  0
  6  7  2  0
  7  8  1  0
  7 45  1  0
  8  9  1  0
  8 10  1  0
 10 11  1  0
 10 37  2  0
 11 12  1  0
 11 46  1  0
 12 13  1  1
 12 14  1  0
 12 26  1  0
 14 15  1  0
 14 47  1  0
 14 48  1  0
 15 16  1  0
 15 49  1  0
 15 50  1  0
 16 25  1  0
 16 17  2  0
 17 18  1  0
 17 51  1  0
 18 19  2  0
 18 52  1  0
 19 20  1  0
 19 53  1  0
 20 25  2  0
 20 21  1  0
 21 22  2  0
 21 54  1  0
 22 23  1  0
 22 55  1  0
 23 24  2  0
 23 56  1  0
 24 25  1  0
 24 57  1  0
 26 27  1  0
 26 58  1  0
 26 59  1  0
 27 36  1  0
 27 28  2  0
 28 29  1  0
 28 60  1  0
 29 30  2  0
 29 61  1  0
 30 31  1  0
 30 62  1  0
 31 36  2  0
 31 32  1  0
 32 33  2  0
 32 63  1  0
 33 34  1  0
 33 64  1  0
 34 35  2  0
 34 65  1  0
 35 36  1  0
 35 66  1  0
 37 38  1  0
 39 40  1  0
 39 67  1  0
 40 68  1  0
M  CHG  1  37   1
M  END
>  <DOCK_score>  (1) 
-57.211945

>  <SMILES>  (1) 
Nc1ccc(-c2c[nH]c(N[C@H](CCc3cccc4ccccc34)Cc3cccc4ccccc34)[nH+]2)cc1

$$$$
