Nc1ccc(-c2c[nH]c(N[C@@H](c3ccc(F)cc3)c3ccc(Nc4ccccc4)o3)[nH+]2)cc1
     RDKit          3D

 56 60  0  0  1  0  0  0  0  0999 V2000
  131.1163  129.6390  152.4222 N   0  0  0  0  0  0  0  0  0  0  0  0
  130.8051  130.4000  153.5515 C   0  0  0  0  0  0  0  0  0  0  0  0
  130.1427  131.6136  153.4097 C   0  0  0  0  0  0  0  0  0  0  0  0
  129.8350  132.3665  154.5231 C   0  0  0  0  0  0  0  0  0  0  0  0
  130.1882  131.9093  155.7918 C   0  0  0  0  0  0  0  0  0  0  0  0
  129.8585  132.7179  156.9912 C   0  0  0  0  0  0  0  0  0  0  0  0
  129.0726  132.3279  158.0250 C   0  0  0  0  0  0  0  0  0  0  0  0
  129.0349  133.3755  158.9144 N   0  0  0  0  0  0  0  0  0  0  0  0
  128.5524  133.3981  159.7556 H   0  0  0  0  0  0  0  0  0  0  0  0
  129.7995  134.3749  158.3966 C   0  0  0  0  0  0  0  0  0  0  0  0
  130.0228  135.6074  158.9862 N   0  0  0  0  0  0  0  0  0  0  0  0
  129.4104  135.9226  160.2793 C   0  0  1  0  0  0  0  0  0  0  0  0
  128.3255  135.8656  160.1911 H   0  0  0  0  0  0  0  0  0  0  0  0
  129.8831  134.9335  161.3133 C   0  0  0  0  0  0  0  0  0  0  0  0
  129.0656  134.6037  162.3782 C   0  0  0  0  0  0  0  0  0  0  0  0
  129.4961  133.6929  163.3244 C   0  0  0  0  0  0  0  0  0  0  0  0
  130.7508  133.1188  163.2110 C   0  0  0  0  0  0  0  0  0  0  0  0
  131.1745  132.2318  164.1381 F   0  0  0  0  0  0  0  0  0  0  0  0
  131.5708  133.4537  162.1469 C   0  0  0  0  0  0  0  0  0  0  0  0
  131.1361  134.3606  161.1991 C   0  0  0  0  0  0  0  0  0  0  0  0
  129.8080  137.3148  160.6973 C   0  0  0  0  0  0  0  0  0  0  0  0
  129.0703  138.1488  161.4510 C   0  0  0  0  0  0  0  0  0  0  0  0
  129.8171  139.3404  161.5982 C   0  0  0  0  0  0  0  0  0  0  0  0
  130.9754  139.1617  160.9204 C   0  0  0  0  0  0  0  0  0  0  0  0
  132.0048  140.0925  160.8045 N   0  0  0  0  0  0  0  0  0  0  0  0
  133.1517  139.7779  160.0718 C   0  0  0  0  0  0  0  0  0  0  0  0
  134.3956  139.7798  160.6908 C   0  0  0  0  0  0  0  0  0  0  0  0
  135.5274  139.4688  159.9633 C   0  0  0  0  0  0  0  0  0  0  0  0
  135.4239  139.1563  158.6201 C   0  0  0  0  0  0  0  0  0  0  0  0
  134.1880  139.1591  157.9995 C   0  0  0  0  0  0  0  0  0  0  0  0
  133.0513  139.4631  158.7223 C   0  0  0  0  0  0  0  0  0  0  0  0
  130.9586  137.9342  160.3737 O   0  0  0  0  0  0  0  0  0  0  0  0
  130.2853  133.9804  157.2448 N   0  0  0  0  0  0  0  0  0  0  0  0
  130.8600  134.5064  156.6670 H   0  0  0  0  0  0  0  0  0  0  0  0
  130.8567  130.6940  155.9314 C   0  0  0  0  0  0  0  0  0  0  0  0
  131.1578  129.9419  154.8156 C   0  0  0  0  0  0  0  0  0  0  0  0
  130.8703  129.9579  151.5397 H   0  0  0  0  0  0  0  0  0  0  0  0
  131.5786  128.7920  152.5204 H   0  0  0  0  0  0  0  0  0  0  0  0
  129.8694  131.9674  152.4266 H   0  0  0  0  0  0  0  0  0  0  0  0
  129.3204  133.3095  154.4123 H   0  0  0  0  0  0  0  0  0  0  0  0
  128.5718  131.3767  158.1294 H   0  0  0  0  0  0  0  0  0  0  0  0
  130.5847  136.2624  158.5431 H   0  0  0  0  0  0  0  0  0  0  0  0
  128.0885  135.0549  162.4685 H   0  0  0  0  0  0  0  0  0  0  0  0
  128.8556  133.4323  164.1540 H   0  0  0  0  0  0  0  0  0  0  0  0
  132.5500  133.0067  162.0578 H   0  0  0  0  0  0  0  0  0  0  0  0
  131.7755  134.6219  160.3688 H   0  0  0  0  0  0  0  0  0  0  0  0
  128.0936  137.9469  161.8656 H   0  0  0  0  0  0  0  0  0  0  0  0
  129.5205  140.2230  162.1452 H   0  0  0  0  0  0  0  0  0  0  0  0
  131.9253  140.9594  161.2326 H   0  0  0  0  0  0  0  0  0  0  0  0
  134.4774  140.0245  161.7395 H   0  0  0  0  0  0  0  0  0  0  0  0
  136.4947  139.4700  160.4437 H   0  0  0  0  0  0  0  0  0  0  0  0
  136.3107  138.9138  158.0535 H   0  0  0  0  0  0  0  0  0  0  0  0
  134.1112  138.9188  156.9494 H   0  0  0  0  0  0  0  0  0  0  0  0
  132.0859  139.4610  158.2381 H   0  0  0  0  0  0  0  0  0  0  0  0
  131.1348  130.3399  156.9129 H   0  0  0  0  0  0  0  0  0  0  0  0
  131.6720  128.9985  154.9234 H   0  0  0  0  0  0  0  0  0  0  0  0
  1  2  1  0
  1 37  1  0
  1 38  1  0
  2 36  2  0
  2  3  1  0
  3  4  2  0
  3 39  1  0
  4  5  1  0
  4 40  1  0
  5  6  1  0
  5 35  2  0
  6 33  1  0
  6  7  2  0
  7  8  1  0
  7 41  1  0
  8  9  1  0
  8 10  1  0
 10 11  1  0
 10 33  2  0
 11 12  1  0
 11 42  1  0
 12 13  1  6
 12 14  1  0
 12 21  1  0
 14 20  1  0
 14 15  2  0
 15 16  1  0
 15 43  1  0
 16 17  2  0
 16 44  1  0
 17 18  1  0
 17 19  1  0
 19 20  2  0
 19 45  1  0
 20 46  1  0
 21 32  1  0
 21 22  2  0
 22 23  1  0
 22 47  1  0
 23 24  2  0
 23 48  1  0
 24 25  1  0
 24 32  1  0
 25 26  1  0
 25 49  1  0
 26 31  1  0
 26 27  2  0
 27 28  1  0
 27 50  1  0
 28 29  2  0
 28 51  1  0
 29 30  1  0
 29 52  1  0
 30 31  2  0
 30 53  1  0
 31 54  1  0
 33 34  1  0
 35 36  1  0
 35 55  1  0
 36 56  1  0
M  CHG  1  33   1
M  END
>  <DOCK_score>  (1) 
-63.887371

>  <SMILES>  (1) 
Nc1ccc(-c2c[nH]c(N[C@@H](c3ccc(F)cc3)c3ccc(Nc4ccccc4)o3)[nH+]2)cc1

$$$$
