Nc1cccc(Nc2ccccc2Cl)c1Oc1ccc([C@@H]([NH3+])C(=O)Nc2cccc(O)c2)cc1
     RDKit          3D

 58 61  0  0  1  0  0  0  0  0999 V2000
  136.2234  135.1482  163.4337 N   0  0  0  0  0  0  0  0  0  0  0  0
  135.1228  135.6572  164.1324 C   0  0  0  0  0  0  0  0  0  0  0  0
  135.2873  136.7207  165.0102 C   0  0  0  0  0  0  0  0  0  0  0  0
  134.2011  137.2247  165.7003 C   0  0  0  0  0  0  0  0  0  0  0  0
  132.9465  136.6733  165.5214 C   0  0  0  0  0  0  0  0  0  0  0  0
  132.7715  135.6095  164.6460 C   0  0  0  0  0  0  0  0  0  0  0  0
  131.5016  135.0481  164.4700 N   0  0  0  0  0  0  0  0  0  0  0  0
  130.4483  135.8364  163.9983 C   0  0  0  0  0  0  0  0  0  0  0  0
  130.6613  137.1759  163.6984 C   0  0  0  0  0  0  0  0  0  0  0  0
  129.6184  137.9522  163.2326 C   0  0  0  0  0  0  0  0  0  0  0  0
  128.3625  137.3978  163.0648 C   0  0  0  0  0  0  0  0  0  0  0  0
  128.1458  136.0650  163.3626 C   0  0  0  0  0  0  0  0  0  0  0  0
  129.1863  135.2805  163.8229 C   0  0  0  0  0  0  0  0  0  0  0  0
  128.9157  133.6053  164.1893 Cl  0  0  0  0  0  0  0  0  0  0  0  0
  133.8620  135.0990  163.9484 C   0  0  0  0  0  0  0  0  0  0  0  0
  133.6959  134.0568  163.0898 O   0  0  0  0  0  0  0  0  0  0  0  0
  132.8489  134.2235  162.0406 C   0  0  0  0  0  0  0  0  0  0  0  0
  131.9403  133.2265  161.7150 C   0  0  0  0  0  0  0  0  0  0  0  0
  131.0775  133.4008  160.6505 C   0  0  0  0  0  0  0  0  0  0  0  0
  131.1266  134.5627  159.9022 C   0  0  0  0  0  0  0  0  0  0  0  0
  130.1883  134.7474  158.7377 C   0  0  1  0  0  0  0  0  0  0  0  0
  129.9720  135.8081  158.6100 H   0  0  0  0  0  0  0  0  0  0  0  0
  130.8153  134.2252  157.5160 N   0  0  0  0  0  0  0  0  0  0  0  0
  131.0155  133.2434  157.6341 H   0  0  0  0  0  0  0  0  0  0  0  0
  130.1870  134.3490  156.7363 H   0  0  0  0  0  0  0  0  0  0  0  0
  131.6738  134.7247  157.3387 H   0  0  0  0  0  0  0  0  0  0  0  0
  128.9059  134.0015  159.0023 C   0  0  0  0  0  0  0  0  0  0  0  0
  128.5494  133.1215  158.2477 O   0  0  0  0  0  0  0  0  0  0  0  0
  128.1553  134.3123  160.0777 N   0  0  0  0  0  0  0  0  0  0  0  0
  126.9646  133.6197  160.3236 C   0  0  0  0  0  0  0  0  0  0  0  0
  126.8311  132.2988  159.9146 C   0  0  0  0  0  0  0  0  0  0  0  0
  125.6579  131.6133  160.1625 C   0  0  0  0  0  0  0  0  0  0  0  0
  124.6099  132.2427  160.8076 C   0  0  0  0  0  0  0  0  0  0  0  0
  124.7356  133.5637  161.2133 C   0  0  0  0  0  0  0  0  0  0  0  0
  123.7042  134.1814  161.8470 O   0  0  0  0  0  0  0  0  0  0  0  0
  125.9136  134.2531  160.9713 C   0  0  0  0  0  0  0  0  0  0  0  0
  132.0354  135.5549  160.2204 C   0  0  0  0  0  0  0  0  0  0  0  0
  132.8966  135.3882  161.2875 C   0  0  0  0  0  0  0  0  0  0  0  0
  137.1021  135.5383  163.5625 H   0  0  0  0  0  0  0  0  0  0  0  0
  136.1075  134.4053  162.8209 H   0  0  0  0  0  0  0  0  0  0  0  0
  136.2659  137.1546  165.1539 H   0  0  0  0  0  0  0  0  0  0  0  0
  134.3333  138.0519  166.3819 H   0  0  0  0  0  0  0  0  0  0  0  0
  132.1007  137.0706  166.0630 H   0  0  0  0  0  0  0  0  0  0  0  0
  131.3524  134.1119  164.6753 H   0  0  0  0  0  0  0  0  0  0  0  0
  131.6415  137.6099  163.8296 H   0  0  0  0  0  0  0  0  0  0  0  0
  129.7837  138.9936  162.9994 H   0  0  0  0  0  0  0  0  0  0  0  0
  127.5488  138.0076  162.7007 H   0  0  0  0  0  0  0  0  0  0  0  0
  127.1638  135.6355  163.2308 H   0  0  0  0  0  0  0  0  0  0  0  0
  131.9046  132.3170  162.2963 H   0  0  0  0  0  0  0  0  0  0  0  0
  130.3665  132.6274  160.4000 H   0  0  0  0  0  0  0  0  0  0  0  0
  128.4405  135.0161  160.6812 H   0  0  0  0  0  0  0  0  0  0  0  0
  127.6468  131.8060  159.4064 H   0  0  0  0  0  0  0  0  0  0  0  0
  125.5573  130.5853  159.8475 H   0  0  0  0  0  0  0  0  0  0  0  0
  123.6922  131.7055  160.9965 H   0  0  0  0  0  0  0  0  0  0  0  0
  123.8855  135.0994  162.0907 H   0  0  0  0  0  0  0  0  0  0  0  0
  126.0134  135.2813  161.2867 H   0  0  0  0  0  0  0  0  0  0  0  0
  132.0717  136.4615  159.6346 H   0  0  0  0  0  0  0  0  0  0  0  0
  133.6063  136.1635  161.5357 H   0  0  0  0  0  0  0  0  0  0  0  0
  1  2  1  0
  1 39  1  0
  1 40  1  0
  2 15  2  0
  2  3  1  0
  3  4  2  0
  3 41  1  0
  4  5  1  0
  4 42  1  0
  5  6  2  0
  5 43  1  0
  6  7  1  0
  6 15  1  0
  7  8  1  0
  7 44  1  0
  8 13  1  0
  8  9  2  0
  9 10  1  0
  9 45  1  0
 10 11  2  0
 10 46  1  0
 11 12  1  0
 11 47  1  0
 12 13  2  0
 12 48  1  0
 13 14  1  0
 15 16  1  0
 16 17  1  0
 17 38  1  0
 17 18  2  0
 18 19  1  0
 18 49  1  0
 19 20  2  0
 19 50  1  0
 20 21  1  0
 20 37  1  0
 21 22  1  6
 21 23  1  0
 21 27  1  0
 23 24  1  0
 23 25  1  0
 23 26  1  0
 27 28  2  0
 27 29  1  0
 29 30  1  0
 29 51  1  0
 30 36  1  0
 30 31  2  0
 31 32  1  0
 31 52  1  0
 32 33  2  0
 32 53  1  0
 33 34  1  0
 33 54  1  0
 34 35  1  0
 34 36  2  0
 35 55  1  0
 36 56  1  0
 37 38  2  0
 37 57  1  0
 38 58  1  0
M  CHG  1  23   1
M  END
>  <DOCK_score>  (1) 
-46.406403

>  <SMILES>  (1) 
Nc1cccc(Nc2ccccc2Cl)c1Oc1ccc([C@@H]([NH3+])C(=O)Nc2cccc(O)c2)cc1

$$$$
