CC(C)=CSCCC#C[C@H](Nc1[nH]cc(-c2ccc(N)cc2)[nH+]1)c1ccc(F)cc1
     RDKit          3D

 56 58  0  0  1  0  0  0  0  0999 V2000
  133.2378  137.5287  160.1346 C   0  0  0  0  0  0  0  0  0  0  0  0
  134.0954  138.7045  160.5261 C   0  0  0  0  0  0  0  0  0  0  0  0
  135.4615  138.8778  159.9139 C   0  0  0  0  0  0  0  0  0  0  0  0
  133.6496  139.5832  161.4061 C   0  0  0  0  0  0  0  0  0  0  0  0
  132.0523  139.3806  162.1219 S   0  0  0  0  0  0  0  0  0  0  0  0
  130.9745  140.2862  160.9778 C   0  0  0  0  0  0  0  0  0  0  0  0
  129.5304  139.8129  161.1549 C   0  0  0  0  0  0  0  0  0  0  0  0
  129.4480  138.3712  160.8694 C   0  0  0  0  0  0  0  0  0  0  0  0
  129.3823  137.2214  160.6417 C   0  0  0  0  0  0  0  0  0  0  0  0
  129.3000  135.7797  160.3560 C   0  0  2  0  0  0  0  0  0  0  0  0
  129.9474  135.2355  161.0435 H   0  0  0  0  0  0  0  0  0  0  0  0
  129.7303  135.5294  158.9781 N   0  0  0  0  0  0  0  0  0  0  0  0
  129.7379  134.2381  158.4791 C   0  0  0  0  0  0  0  0  0  0  0  0
  129.3651  133.1221  159.1625 N   0  0  0  0  0  0  0  0  0  0  0  0
  129.0494  133.0882  160.0791 H   0  0  0  0  0  0  0  0  0  0  0  0
  129.5189  132.0514  158.3140 C   0  0  0  0  0  0  0  0  0  0  0  0
  129.9807  132.5445  157.1385 C   0  0  0  0  0  0  0  0  0  0  0  0
  130.2937  131.7538  155.9229 C   0  0  0  0  0  0  0  0  0  0  0  0
  129.6160  132.0076  154.7313 C   0  0  0  0  0  0  0  0  0  0  0  0
  129.9128  131.2754  153.6012 C   0  0  0  0  0  0  0  0  0  0  0  0
  130.8786  130.2769  153.6526 C   0  0  0  0  0  0  0  0  0  0  0  0
  131.1735  129.5329  152.5075 N   0  0  0  0  0  0  0  0  0  0  0  0
  131.5512  130.0184  154.8406 C   0  0  0  0  0  0  0  0  0  0  0  0
  131.2619  130.7521  155.9719 C   0  0  0  0  0  0  0  0  0  0  0  0
  130.1001  133.8896  157.2685 N   0  0  0  0  0  0  0  0  0  0  0  0
  130.4067  134.4964  156.5766 H   0  0  0  0  0  0  0  0  0  0  0  0
  127.8776  135.3135  160.5306 C   0  0  0  0  0  0  0  0  0  0  0  0
  127.4475  134.8537  161.7614 C   0  0  0  0  0  0  0  0  0  0  0  0
  126.1419  134.4304  161.9238 C   0  0  0  0  0  0  0  0  0  0  0  0
  125.2675  134.4572  160.8506 C   0  0  0  0  0  0  0  0  0  0  0  0
  123.9922  134.0393  161.0071 F   0  0  0  0  0  0  0  0  0  0  0  0
  125.7008  134.9130  159.6172 C   0  0  0  0  0  0  0  0  0  0  0  0
  127.0052  135.3407  159.4584 C   0  0  0  0  0  0  0  0  0  0  0  0
  132.3056  137.8881  159.6987 H   0  0  0  0  0  0  0  0  0  0  0  0
  133.7691  136.9188  159.4039 H   0  0  0  0  0  0  0  0  0  0  0  0
  133.0185  136.9289  161.0178 H   0  0  0  0  0  0  0  0  0  0  0  0
  136.2023  138.3658  160.5279 H   0  0  0  0  0  0  0  0  0  0  0  0
  135.4661  138.4537  158.9098 H   0  0  0  0  0  0  0  0  0  0  0  0
  135.7041  139.9391  159.8613 H   0  0  0  0  0  0  0  0  0  0  0  0
  134.2641  140.4258  161.6867 H   0  0  0  0  0  0  0  0  0  0  0  0
  131.2948  140.1001  159.9527 H   0  0  0  0  0  0  0  0  0  0  0  0
  131.0355  141.3537  161.1893 H   0  0  0  0  0  0  0  0  0  0  0  0
  128.8828  140.3571  160.4676 H   0  0  0  0  0  0  0  0  0  0  0  0
  129.2102  139.9991  162.1800 H   0  0  0  0  0  0  0  0  0  0  0  0
  130.0097  136.2684  158.4156 H   0  0  0  0  0  0  0  0  0  0  0  0
  129.3116  131.0159  158.5404 H   0  0  0  0  0  0  0  0  0  0  0  0
  128.8622  132.7800  154.6924 H   0  0  0  0  0  0  0  0  0  0  0  0
  129.3909  131.4744  152.6769 H   0  0  0  0  0  0  0  0  0  0  0  0
  131.8476  128.8362  152.5424 H   0  0  0  0  0  0  0  0  0  0  0  0
  130.7044  129.7127  151.6778 H   0  0  0  0  0  0  0  0  0  0  0  0
  132.3010  129.2421  154.8782 H   0  0  0  0  0  0  0  0  0  0  0  0
  131.7852  130.5510  156.8949 H   0  0  0  0  0  0  0  0  0  0  0  0
  128.1309  134.8290  162.5972 H   0  0  0  0  0  0  0  0  0  0  0  0
  125.8051  134.0751  162.8865 H   0  0  0  0  0  0  0  0  0  0  0  0
  125.0197  134.9340  158.7793 H   0  0  0  0  0  0  0  0  0  0  0  0
  127.3434  135.6965  158.4964 H   0  0  0  0  0  0  0  0  0  0  0  0
  1  2  1  0
  1 34  1  0
  1 35  1  0
  1 36  1  0
  2  3  1  0
  2  4  2  0
  3 37  1  0
  3 38  1  0
  3 39  1  0
  4  5  1  0
  4 40  1  0
  5  6  1  0
  6  7  1  0
  6 41  1  0
  6 42  1  0
  7  8  1  0
  7 43  1  0
  7 44  1  0
  8  9  3  0
  9 10  1  0
 10 11  1  1
 10 12  1  0
 10 27  1  0
 12 45  1  0
 13 12  1  0
 13 25  2  0
 13 14  1  0
 14 15  1  0
 14 16  1  0
 16 17  2  0
 16 46  1  0
 17 18  1  0
 17 25  1  0
 18 24  1  0
 18 19  2  0
 19 20  1  0
 19 47  1  0
 20 21  2  0
 20 48  1  0
 21 22  1  0
 21 23  1  0
 22 49  1  0
 22 50  1  0
 23 24  2  0
 23 51  1  0
 24 52  1  0
 25 26  1  0
 27 33  1  0
 27 28  2  0
 28 29  1  0
 28 53  1  0
 29 30  2  0
 29 54  1  0
 30 31  1  0
 30 32  1  0
 32 33  2  0
 32 55  1  0
 33 56  1  0
M  CHG  1  25   1
M  END
>  <DOCK_score>  (1) 
-56.437351

>  <SMILES>  (1) 
CC(C)=CSCCC#C[C@H](Nc1[nH]cc(-c2ccc(N)cc2)[nH+]1)c1ccc(F)cc1

$$$$
