Nc1ccc(-c2c[nH]c(N[C@H](c3ccccc3)c3ccc(N[C@@H]4C=C[C@@H](O)[C@H]4Cl)cc3)[nH+]2)cc1
     RDKit          3D

 61 65  0  0  1  0  0  0  0  0999 V2000
  131.4877  129.9256  151.7703 N   0  0  0  0  0  0  0  0  0  0  0  0
  131.2192  130.5215  153.0049 C   0  0  0  0  0  0  0  0  0  0  0  0
  130.7937  131.8428  153.0606 C   0  0  0  0  0  0  0  0  0  0  0  0
  130.5289  132.4326  154.2786 C   0  0  0  0  0  0  0  0  0  0  0  0
  130.6882  131.7019  155.4549 C   0  0  0  0  0  0  0  0  0  0  0  0
  130.4045  132.3344  156.7666 C   0  0  0  0  0  0  0  0  0  0  0  0
  129.9554  131.7001  157.8777 C   0  0  0  0  0  0  0  0  0  0  0  0
  129.8327  132.6547  158.8594 N   0  0  0  0  0  0  0  0  0  0  0  0
  129.5338  132.5072  159.7703 H   0  0  0  0  0  0  0  0  0  0  0  0
  130.2020  133.8460  158.3152 C   0  0  0  0  0  0  0  0  0  0  0  0
  130.2158  135.0636  158.9738 N   0  0  0  0  0  0  0  0  0  0  0  0
  129.8086  135.1411  160.3790 C   0  0  2  0  0  0  0  0  0  0  0  0
  130.1965  134.2766  160.9178 H   0  0  0  0  0  0  0  0  0  0  0  0
  128.3042  135.1536  160.4661 C   0  0  0  0  0  0  0  0  0  0  0  0
  127.6712  134.6116  161.5690 C   0  0  0  0  0  0  0  0  0  0  0  0
  126.2914  134.6279  161.6514 C   0  0  0  0  0  0  0  0  0  0  0  0
  125.5442  135.1763  160.6259 C   0  0  0  0  0  0  0  0  0  0  0  0
  126.1770  135.7132  159.5202 C   0  0  0  0  0  0  0  0  0  0  0  0
  127.5570  135.7021  159.4406 C   0  0  0  0  0  0  0  0  0  0  0  0
  130.3579  136.4033  160.9923 C   0  0  0  0  0  0  0  0  0  0  0  0
  131.5460  136.9362  160.5267 C   0  0  0  0  0  0  0  0  0  0  0  0
  132.0491  138.0959  161.0828 C   0  0  0  0  0  0  0  0  0  0  0  0
  131.3666  138.7208  162.1185 C   0  0  0  0  0  0  0  0  0  0  0  0
  131.8759  139.8906  162.6867 N   0  0  0  0  0  0  0  0  0  0  0  0
  131.6101  140.1961  164.0952 C   0  0  2  0  0  0  0  0  0  0  0  0
  130.5372  140.2762  164.2698 H   0  0  0  0  0  0  0  0  0  0  0  0
  132.3082  141.4745  164.4971 C   0  0  0  0  0  0  0  0  0  0  0  0
  133.3915  141.2236  165.1808 C   0  0  0  0  0  0  0  0  0  0  0  0
  133.5964  139.7361  165.3489 C   0  0  1  0  0  0  0  0  0  0  0  0
  134.3599  139.3776  164.6585 H   0  0  0  0  0  0  0  0  0  0  0  0
  133.9606  139.4330  166.6970 O   0  0  0  0  0  0  0  0  0  0  0  0
  132.2246  139.1092  165.0078 C   0  0  1  0  0  0  0  0  0  0  0  0
  132.3469  138.1696  164.4691 H   0  0  0  0  0  0  0  0  0  0  0  0
  131.2320  138.8755  166.4946 Cl  0  0  0  0  0  0  0  0  0  0  0  0
  130.1762  138.1796  162.5877 C   0  0  0  0  0  0  0  0  0  0  0  0
  129.6754  137.0228  162.0233 C   0  0  0  0  0  0  0  0  0  0  0  0
  130.5429  133.6505  157.0648 N   0  0  0  0  0  0  0  0  0  0  0  0
  130.8459  134.3374  156.4505 H   0  0  0  0  0  0  0  0  0  0  0  0
  131.1201  130.3776  155.3974 C   0  0  0  0  0  0  0  0  0  0  0  0
  131.3787  129.7903  154.1768 C   0  0  0  0  0  0  0  0  0  0  0  0
  131.3766  130.4348  150.9522 H   0  0  0  0  0  0  0  0  0  0  0  0
  131.7849  129.0032  151.7309 H   0  0  0  0  0  0  0  0  0  0  0  0
  130.6705  132.4086  152.1489 H   0  0  0  0  0  0  0  0  0  0  0  0
  130.1980  133.4598  154.3211 H   0  0  0  0  0  0  0  0  0  0  0  0
  129.7379  130.6466  157.9737 H   0  0  0  0  0  0  0  0  0  0  0  0
  130.4951  135.8656  158.5049 H   0  0  0  0  0  0  0  0  0  0  0  0
  128.2548  134.1789  162.3682 H   0  0  0  0  0  0  0  0  0  0  0  0
  125.7970  134.2087  162.5152 H   0  0  0  0  0  0  0  0  0  0  0  0
  124.4661  135.1857  160.6884 H   0  0  0  0  0  0  0  0  0  0  0  0
  125.5933  136.1418  158.7191 H   0  0  0  0  0  0  0  0  0  0  0  0
  128.0515  136.1216  158.5768 H   0  0  0  0  0  0  0  0  0  0  0  0
  132.0788  136.4473  159.7246 H   0  0  0  0  0  0  0  0  0  0  0  0
  132.9749  138.5140  160.7157 H   0  0  0  0  0  0  0  0  0  0  0  0
  132.4051  140.5003  162.1501 H   0  0  0  0  0  0  0  0  0  0  0  0
  131.9572  142.4658  164.2507 H   0  0  0  0  0  0  0  0  0  0  0  0
  134.0544  141.9800  165.5743 H   0  0  0  0  0  0  0  0  0  0  0  0
  134.0350  138.4865  166.8811 H   0  0  0  0  0  0  0  0  0  0  0  0
  129.6425  138.6632  163.3926 H   0  0  0  0  0  0  0  0  0  0  0  0
  128.7500  136.6017  162.3873 H   0  0  0  0  0  0  0  0  0  0  0  0
  131.2482  129.8110  156.3078 H   0  0  0  0  0  0  0  0  0  0  0  0
  131.7089  128.7631  154.1315 H   0  0  0  0  0  0  0  0  0  0  0  0
  1  2  1  0
  1 41  1  0
  1 42  1  0
  2 40  2  0
  2  3  1  0
  3  4  2  0
  3 43  1  0
  4  5  1  0
  4 44  1  0
  5  6  1  0
  5 39  2  0
  6 37  1  0
  6  7  2  0
  7  8  1  0
  7 45  1  0
  8  9  1  0
  8 10  1  0
 10 11  1  0
 10 37  2  0
 11 12  1  0
 11 46  1  0
 12 13  1  1
 12 14  1  0
 12 20  1  0
 14 19  1  0
 14 15  2  0
 15 16  1  0
 15 47  1  0
 16 17  2  0
 16 48  1  0
 17 18  1  0
 17 49  1  0
 18 19  2  0
 18 50  1  0
 19 51  1  0
 20 36  1  0
 20 21  2  0
 21 22  1  0
 21 52  1  0
 22 23  2  0
 22 53  1  0
 23 24  1  0
 23 35  1  0
 24 25  1  0
 24 54  1  0
 25 26  1  6
 25 32  1  0
 25 27  1  0
 27 28  2  0
 27 55  1  0
 28 29  1  0
 28 56  1  0
 29 30  1  6
 29 31  1  0
 29 32  1  0
 31 57  1  0
 32 33  1  6
 32 34  1  0
 35 36  2  0
 35 58  1  0
 36 59  1  0
 37 38  1  0
 39 40  1  0
 39 60  1  0
 40 61  1  0
M  CHG  1  37   1
M  END
>  <DOCK_score>  (1) 
-60.000137

>  <SMILES>  (1) 
Nc1ccc(-c2c[nH]c(N[C@H](c3ccccc3)c3ccc(N[C@@H]4C=C[C@@H](O)[C@H]4Cl)cc3)[nH+]2)cc1

$$$$
