OC[C@H](Cc1ccc2ccccc2c1)Nc1[nH]cc(-c2ccc(C3=CCC=CC3)cc2)[nH+]1
     RDKit          3D

 60 64  0  0  1  0  0  0  0  0999 V2000
  129.1890  134.9097  162.2954 O   0  0  0  0  0  0  0  0  0  0  0  0
  129.3318  136.3193  162.1084 C   0  0  0  0  0  0  0  0  0  0  0  0
  130.7671  136.6344  161.6822 C   0  0  2  0  0  0  0  0  0  0  0  0
  131.4593  136.0094  162.2465 H   0  0  0  0  0  0  0  0  0  0  0  0
  131.0694  138.1084  161.9591 C   0  0  0  0  0  0  0  0  0  0  0  0
  132.4831  138.4188  161.5393 C   0  0  0  0  0  0  0  0  0  0  0  0
  132.7338  138.8494  160.2377 C   0  0  0  0  0  0  0  0  0  0  0  0
  133.9986  139.1376  159.8264 C   0  0  0  0  0  0  0  0  0  0  0  0
  135.0704  139.0000  160.7250 C   0  0  0  0  0  0  0  0  0  0  0  0
  136.3900  139.2887  160.3368 C   0  0  0  0  0  0  0  0  0  0  0  0
  137.4028  139.1434  161.2341 C   0  0  0  0  0  0  0  0  0  0  0  0
  137.1521  138.7126  162.5357 C   0  0  0  0  0  0  0  0  0  0  0  0
  135.8873  138.4244  162.9471 C   0  0  0  0  0  0  0  0  0  0  0  0
  134.8155  138.5621  162.0484 C   0  0  0  0  0  0  0  0  0  0  0  0
  133.4966  138.2686  162.4350 C   0  0  0  0  0  0  0  0  0  0  0  0
  130.9217  136.3647  160.2506 N   0  0  0  0  0  0  0  0  0  0  0  0
  130.6989  135.0903  159.7583 C   0  0  0  0  0  0  0  0  0  0  0  0
  130.3278  134.0090  160.4969 N   0  0  0  0  0  0  0  0  0  0  0  0
  130.1736  133.9928  161.4545 H   0  0  0  0  0  0  0  0  0  0  0  0
  130.2123  132.9446  159.6365 C   0  0  0  0  0  0  0  0  0  0  0  0
  130.5160  133.4058  158.3971 C   0  0  0  0  0  0  0  0  0  0  0  0
  130.5243  132.6086  157.1474 C   0  0  0  0  0  0  0  0  0  0  0  0
  130.2265  133.2195  155.9288 C   0  0  0  0  0  0  0  0  0  0  0  0
  130.2388  132.4808  154.7671 C   0  0  0  0  0  0  0  0  0  0  0  0
  130.5394  131.1180  154.8097 C   0  0  0  0  0  0  0  0  0  0  0  0
  130.5480  130.3233  153.5646 C   0  0  0  0  0  0  0  0  0  0  0  0
  129.7435  130.6755  152.5851 C   0  0  0  0  0  0  0  0  0  0  0  0
  129.6850  129.9359  151.2818 C   0  0  0  0  0  0  0  0  0  0  0  0
  130.2441  128.5522  151.4202 C   0  0  0  0  0  0  0  0  0  0  0  0
  131.0334  128.2017  152.3885 C   0  0  0  0  0  0  0  0  0  0  0  0
  131.4689  129.1438  153.4699 C   0  0  0  0  0  0  0  0  0  0  0  0
  130.8319  130.5056  156.0309 C   0  0  0  0  0  0  0  0  0  0  0  0
  130.8240  131.2467  157.1911 C   0  0  0  0  0  0  0  0  0  0  0  0
  130.8049  134.7274  158.5034 N   0  0  0  0  0  0  0  0  0  0  0  0
  131.0522  135.3101  157.7684 H   0  0  0  0  0  0  0  0  0  0  0  0
  128.3020  134.6369  162.5669 H   0  0  0  0  0  0  0  0  0  0  0  0
  129.1091  136.8341  163.0430 H   0  0  0  0  0  0  0  0  0  0  0  0
  128.6412  136.6550  161.3349 H   0  0  0  0  0  0  0  0  0  0  0  0
  130.9543  138.3092  163.0243 H   0  0  0  0  0  0  0  0  0  0  0  0
  130.3773  138.7336  161.3947 H   0  0  0  0  0  0  0  0  0  0  0  0
  131.9120  138.9556  159.5449 H   0  0  0  0  0  0  0  0  0  0  0  0
  134.1778  139.4706  158.8147 H   0  0  0  0  0  0  0  0  0  0  0  0
  136.5990  139.6240  159.3318 H   0  0  0  0  0  0  0  0  0  0  0  0
  138.4160  139.3654  160.9332 H   0  0  0  0  0  0  0  0  0  0  0  0
  137.9739  138.6064  163.2283 H   0  0  0  0  0  0  0  0  0  0  0  0
  135.7080  138.0921  163.9589 H   0  0  0  0  0  0  0  0  0  0  0  0
  133.2878  137.9303  163.4392 H   0  0  0  0  0  0  0  0  0  0  0  0
  131.1803  137.0791  159.6476 H   0  0  0  0  0  0  0  0  0  0  0  0
  129.9327  131.9344  159.8966 H   0  0  0  0  0  0  0  0  0  0  0  0
  129.9906  134.2728  155.8963 H   0  0  0  0  0  0  0  0  0  0  0  0
  130.0124  132.9545  153.8233 H   0  0  0  0  0  0  0  0  0  0  0  0
  129.1029  131.5339  152.7235 H   0  0  0  0  0  0  0  0  0  0  0  0
  130.2596  130.4809  150.5320 H   0  0  0  0  0  0  0  0  0  0  0  0
  128.6462  129.8708  150.9581 H   0  0  0  0  0  0  0  0  0  0  0  0
  129.9785  127.8136  150.6786 H   0  0  0  0  0  0  0  0  0  0  0  0
  131.3941  127.1843  152.4155 H   0  0  0  0  0  0  0  0  0  0  0  0
  132.4777  129.4947  153.2531 H   0  0  0  0  0  0  0  0  0  0  0  0
  131.4717  128.6153  154.4232 H   0  0  0  0  0  0  0  0  0  0  0  0
  131.0640  129.4514  156.0650 H   0  0  0  0  0  0  0  0  0  0  0  0
  131.0503  130.7737  158.1354 H   0  0  0  0  0  0  0  0  0  0  0  0
  1  2  1  0
  1 36  1  0
  2  3  1  0
  2 37  1  0
  2 38  1  0
  3  4  1  1
  3  5  1  0
  3 16  1  0
  5  6  1  0
  5 39  1  0
  5 40  1  0
  6 15  1  0
  6  7  2  0
  7  8  1  0
  7 41  1  0
  8  9  2  0
  8 42  1  0
  9 14  1  0
  9 10  1  0
 10 11  2  0
 10 43  1  0
 11 12  1  0
 11 44  1  0
 12 13  2  0
 12 45  1  0
 13 14  1  0
 13 46  1  0
 14 15  2  0
 15 47  1  0
 16 48  1  0
 17 16  1  0
 17 34  2  0
 17 18  1  0
 18 19  1  0
 18 20  1  0
 20 21  2  0
 20 49  1  0
 21 22  1  0
 21 34  1  0
 22 33  1  0
 22 23  2  0
 23 24  1  0
 23 50  1  0
 24 25  2  0
 24 51  1  0
 25 26  1  0
 25 32  1  0
 26 31  1  0
 26 27  2  0
 27 28  1  0
 27 52  1  0
 28 29  1  0
 28 53  1  0
 28 54  1  0
 29 30  2  0
 29 55  1  0
 30 31  1  0
 30 56  1  0
 31 57  1  0
 31 58  1  0
 32 33  2  0
 32 59  1  0
 33 60  1  0
 34 35  1  0
M  CHG  1  34   1
M  END
>  <DOCK_score>  (1) 
-60.83078

>  <SMILES>  (1) 
OC[C@H](Cc1ccc2ccccc2c1)Nc1[nH]cc(-c2ccc(C3=CCC=CC3)cc2)[nH+]1

$$$$
