Cc1[nH]c(CNc2ccc(NC3CC[C@@H](C)C3=O)cc2C(N)=O)[nH+]c1C
     RDKit          3D

 52 54  0  0  1  0  0  0  0  0999 V2000
  130.5090  130.0083  158.0698 C   0  0  0  0  0  0  0  0  0  0  0  0
  130.2644  131.3226  157.3742 C   0  0  0  0  0  0  0  0  0  0  0  0
  129.6575  132.4058  157.9024 N   0  0  0  0  0  0  0  0  0  0  0  0
  129.3001  132.4753  158.8015 H   0  0  0  0  0  0  0  0  0  0  0  0
  129.6340  133.3571  156.9829 C   0  0  0  0  0  0  0  0  0  0  0  0
  129.0446  134.7329  157.1591 C   0  0  0  0  0  0  0  0  0  0  0  0
  128.4972  134.8600  158.5119 N   0  0  0  0  0  0  0  0  0  0  0  0
  129.3018  135.3261  159.5470 C   0  0  0  0  0  0  0  0  0  0  0  0
  130.6852  135.2793  159.4294 C   0  0  0  0  0  0  0  0  0  0  0  0
  131.4836  135.7403  160.4551 C   0  0  0  0  0  0  0  0  0  0  0  0
  130.9116  136.2559  161.6143 C   0  0  0  0  0  0  0  0  0  0  0  0
  131.7312  136.7214  162.6498 N   0  0  0  0  0  0  0  0  0  0  0  0
  133.0487  137.2845  162.3443 C   0  0  2  0  0  0  0  0  0  0  0  0
  133.7132  137.8406  163.6282 C   0  0  0  0  0  0  0  0  0  0  0  0
  134.7103  138.8835  163.0607 C   0  0  0  0  0  0  0  0  0  0  0  0
  133.9521  139.5041  161.8690 C   0  0  1  0  0  0  0  0  0  0  0  0
  133.4666  140.4297  162.1777 H   0  0  0  0  0  0  0  0  0  0  0  0
  134.9225  139.7811  160.7189 C   0  0  0  0  0  0  0  0  0  0  0  0
  132.9111  138.4931  161.4354 C   0  0  0  0  0  0  0  0  0  0  0  0
  132.1181  138.6241  160.5342 O   0  0  0  0  0  0  0  0  0  0  0  0
  129.5356  136.3047  161.7489 C   0  0  0  0  0  0  0  0  0  0  0  0
  128.7185  135.8447  160.7127 C   0  0  0  0  0  0  0  0  0  0  0  0
  127.2513  135.8979  160.8465 C   0  0  0  0  0  0  0  0  0  0  0  0
  126.6946  136.3968  161.9680 N   0  0  0  0  0  0  0  0  0  0  0  0
  126.5434  135.4918  159.9450 O   0  0  0  0  0  0  0  0  0  0  0  0
  130.2077  132.9005  155.8812 N   0  0  0  0  0  0  0  0  0  0  0  0
  130.3204  133.3927  155.0531 H   0  0  0  0  0  0  0  0  0  0  0  0
  130.6116  131.6334  156.1095 C   0  0  0  0  0  0  0  0  0  0  0  0
  131.3163  130.7309  155.1297 C   0  0  0  0  0  0  0  0  0  0  0  0
  129.6600  129.3454  157.9032 H   0  0  0  0  0  0  0  0  0  0  0  0
  131.4129  129.5485  157.6702 H   0  0  0  0  0  0  0  0  0  0  0  0
  130.6312  130.1804  159.1391 H   0  0  0  0  0  0  0  0  0  0  0  0
  128.2489  134.8833  156.4294 H   0  0  0  0  0  0  0  0  0  0  0  0
  129.8213  135.4827  157.0094 H   0  0  0  0  0  0  0  0  0  0  0  0
  127.5739  134.6191  158.6862 H   0  0  0  0  0  0  0  0  0  0  0  0
  131.1364  134.8805  158.5329 H   0  0  0  0  0  0  0  0  0  0  0  0
  132.5587  135.7013  160.3582 H   0  0  0  0  0  0  0  0  0  0  0  0
  131.4267  136.6709  163.5693 H   0  0  0  0  0  0  0  0  0  0  0  0
  133.6860  136.5309  161.8817 H   0  0  0  0  0  0  0  0  0  0  0  0
  132.9747  138.3206  164.2702 H   0  0  0  0  0  0  0  0  0  0  0  0
  134.2375  137.0511  164.1665 H   0  0  0  0  0  0  0  0  0  0  0  0
  135.6235  138.3947  162.7210 H   0  0  0  0  0  0  0  0  0  0  0  0
  134.9371  139.6438  163.8081 H   0  0  0  0  0  0  0  0  0  0  0  0
  134.3768  140.2097  159.8783 H   0  0  0  0  0  0  0  0  0  0  0  0
  135.6882  140.4826  161.0506 H   0  0  0  0  0  0  0  0  0  0  0  0
  135.3940  138.8487  160.4086 H   0  0  0  0  0  0  0  0  0  0  0  0
  129.0937  136.7010  162.6514 H   0  0  0  0  0  0  0  0  0  0  0  0
  127.2593  136.7209  162.6871 H   0  0  0  0  0  0  0  0  0  0  0  0
  125.7292  136.4319  162.0561 H   0  0  0  0  0  0  0  0  0  0  0  0
  130.5782  130.1672  154.5591 H   0  0  0  0  0  0  0  0  0  0  0  0
  131.9189  131.3329  154.4496 H   0  0  0  0  0  0  0  0  0  0  0  0
  131.9616  130.0396  155.6717 H   0  0  0  0  0  0  0  0  0  0  0  0
  1  2  1  0
  1 30  1  0
  1 31  1  0
  1 32  1  0
  2 28  2  0
  2  3  1  0
  3  4  1  0
  3  5  1  0
  5  6  1  0
  5 26  2  0
  6  7  1  0
  6 33  1  0
  6 34  1  0
  7  8  1  0
  7 35  1  0
  8 22  1  0
  8  9  2  0
  9 10  1  0
  9 36  1  0
 10 11  2  0
 10 37  1  0
 11 12  1  0
 11 21  1  0
 12 13  1  0
 12 38  1  0
 13 19  1  0
 13 14  1  0
 13 39  1  6
 14 15  1  0
 14 40  1  0
 14 41  1  0
 15 16  1  0
 15 42  1  0
 15 43  1  0
 16 17  1  1
 16 18  1  0
 16 19  1  0
 18 44  1  0
 18 45  1  0
 18 46  1  0
 19 20  2  0
 21 22  2  0
 21 47  1  0
 22 23  1  0
 23 24  1  0
 23 25  2  0
 24 48  1  0
 24 49  1  0
 26 27  1  0
 26 28  1  0
 28 29  1  0
 29 50  1  0
 29 51  1  0
 29 52  1  0
M  CHG  1  26   1
M  END
>  <DOCK_score>  (1) 
-41.484158

>  <SMILES>  (1) 
Cc1[nH]c(CNc2ccc(NC3CC[C@@H](C)C3=O)cc2C(N)=O)[nH+]c1C

$$$$
