CCc1ccc(-c2c[nH]c(Nc3ccccc3NC3CCC3)[nH+]2)cc1
     RDKit          3D

 50 53  0  0  1  0  0  0  0  0999 V2000
  130.3260  128.4850  151.7501 C   0  0  0  0  0  0  0  0  0  0  0  0
  131.4110  129.5294  152.0185 C   0  0  0  0  0  0  0  0  0  0  0  0
  131.0698  130.2987  153.2686 C   0  0  0  0  0  0  0  0  0  0  0  0
  131.5213  129.8513  154.4972 C   0  0  0  0  0  0  0  0  0  0  0  0
  131.2169  130.5543  155.6451 C   0  0  0  0  0  0  0  0  0  0  0  0
  130.4434  131.7111  155.5660 C   0  0  0  0  0  0  0  0  0  0  0  0
  130.1082  132.4681  156.7968 C   0  0  0  0  0  0  0  0  0  0  0  0
  129.4248  131.9902  157.8664 C   0  0  0  0  0  0  0  0  0  0  0  0
  129.3385  133.0163  158.7752 N   0  0  0  0  0  0  0  0  0  0  0  0
  128.9053  132.9807  159.6424 H   0  0  0  0  0  0  0  0  0  0  0  0
  129.9723  134.0925  158.2339 C   0  0  0  0  0  0  0  0  0  0  0  0
  130.1094  135.3335  158.8332 N   0  0  0  0  0  0  0  0  0  0  0  0
  129.1303  135.7936  159.7229 C   0  0  0  0  0  0  0  0  0  0  0  0
  127.8092  135.4014  159.5668 C   0  0  0  0  0  0  0  0  0  0  0  0
  126.8455  135.8521  160.4496 C   0  0  0  0  0  0  0  0  0  0  0  0
  127.1923  136.7031  161.4828 C   0  0  0  0  0  0  0  0  0  0  0  0
  128.5058  137.1037  161.6425 C   0  0  0  0  0  0  0  0  0  0  0  0
  129.4802  136.6521  160.7651 C   0  0  0  0  0  0  0  0  0  0  0  0
  130.8104  137.0566  160.9246 N   0  0  0  0  0  0  0  0  0  0  0  0
  131.1558  138.4791  160.8633 C   0  0  0  0  0  0  0  0  0  0  0  0
  132.0040  138.8548  159.6368 C   0  0  0  0  0  0  0  0  0  0  0  0
  132.8034  139.7785  160.5709 C   0  0  0  0  0  0  0  0  0  0  0  0
  132.3743  138.8547  161.7229 C   0  0  0  0  0  0  0  0  0  0  0  0
  130.4359  133.7589  157.0540 N   0  0  0  0  0  0  0  0  0  0  0  0
  130.9322  134.3426  156.4590 H   0  0  0  0  0  0  0  0  0  0  0  0
  129.9864  132.1541  154.3260 C   0  0  0  0  0  0  0  0  0  0  0  0
  130.3017  131.4462  153.1841 C   0  0  0  0  0  0  0  0  0  0  0  0
  130.5726  127.9290  150.8457 H   0  0  0  0  0  0  0  0  0  0  0  0
  130.2670  127.7979  152.5942 H   0  0  0  0  0  0  0  0  0  0  0  0
  129.3656  128.9836  151.6194 H   0  0  0  0  0  0  0  0  0  0  0  0
  132.3712  129.0314  152.1487 H   0  0  0  0  0  0  0  0  0  0  0  0
  131.4700  130.2170  151.1740 H   0  0  0  0  0  0  0  0  0  0  0  0
  132.1169  128.9524  154.5578 H   0  0  0  0  0  0  0  0  0  0  0  0
  131.5736  130.2065  156.6032 H   0  0  0  0  0  0  0  0  0  0  0  0
  129.0247  130.9937  157.9814 H   0  0  0  0  0  0  0  0  0  0  0  0
  130.8834  135.8842  158.6367 H   0  0  0  0  0  0  0  0  0  0  0  0
  127.5340  134.7403  158.7583 H   0  0  0  0  0  0  0  0  0  0  0  0
  125.8180  135.5419  160.3295 H   0  0  0  0  0  0  0  0  0  0  0  0
  126.4348  137.0556  162.1672 H   0  0  0  0  0  0  0  0  0  0  0  0
  128.7731  137.7688  162.4504 H   0  0  0  0  0  0  0  0  0  0  0  0
  131.5038  136.3953  161.0757 H   0  0  0  0  0  0  0  0  0  0  0  0
  130.2955  139.1305  161.0171 H   0  0  0  0  0  0  0  0  0  0  0  0
  132.5880  138.0247  159.2392 H   0  0  0  0  0  0  0  0  0  0  0  0
  131.4463  139.3884  158.8673 H   0  0  0  0  0  0  0  0  0  0  0  0
  132.3940  140.7861  160.6436 H   0  0  0  0  0  0  0  0  0  0  0  0
  133.8766  139.7693  160.3803 H   0  0  0  0  0  0  0  0  0  0  0  0
  132.1156  139.3884  162.6375 H   0  0  0  0  0  0  0  0  0  0  0  0
  133.0587  138.0243  161.8967 H   0  0  0  0  0  0  0  0  0  0  0  0
  129.3864  133.0496  154.2590 H   0  0  0  0  0  0  0  0  0  0  0  0
  129.9479  131.7883  152.2228 H   0  0  0  0  0  0  0  0  0  0  0  0
  1  2  1  0
  1 28  1  0
  1 29  1  0
  1 30  1  0
  2  3  1  0
  2 31  1  0
  2 32  1  0
  3 27  2  0
  3  4  1  0
  4  5  2  0
  4 33  1  0
  5  6  1  0
  5 34  1  0
  6  7  1  0
  6 26  2  0
  7 24  1  0
  7  8  2  0
  8  9  1  0
  8 35  1  0
  9 10  1  0
  9 11  1  0
 11 12  1  0
 11 24  2  0
 12 13  1  0
 12 36  1  0
 13 18  1  0
 13 14  2  0
 14 15  1  0
 14 37  1  0
 15 16  2  0
 15 38  1  0
 16 17  1  0
 16 39  1  0
 17 18  2  0
 17 40  1  0
 18 19  1  0
 19 20  1  0
 19 41  1  0
 20 23  1  0
 20 21  1  0
 20 42  1  0
 21 22  1  0
 21 43  1  0
 21 44  1  0
 22 23  1  0
 22 45  1  0
 22 46  1  0
 23 47  1  0
 23 48  1  0
 24 25  1  0
 26 27  1  0
 26 49  1  0
 27 50  1  0
M  CHG  1  24   1
M  END
>  <DOCK_score>  (1) 
-56.747227

>  <SMILES>  (1) 
CCc1ccc(-c2c[nH]c(Nc3ccccc3NC3CCC3)[nH+]2)cc1

$$$$
