Cc1c[nH]c(Nc2ccc([C@]3(O)C=CC(=O)C3)cc2N[C@H]2CCC(=O)NC2)[nH+]1
     RDKit          3D

 52 55  0  0  1  0  0  0  0  0999 V2000
  130.6243  130.3389  160.2946 C   0  0  0  0  0  0  0  0  0  0  0  0
  130.6978  131.6111  159.4901 C   0  0  0  0  0  0  0  0  0  0  0  0
  131.2187  131.7336  158.2573 C   0  0  0  0  0  0  0  0  0  0  0  0
  131.0800  133.0534  157.8923 N   0  0  0  0  0  0  0  0  0  0  0  0
  131.3586  133.4523  157.0532 H   0  0  0  0  0  0  0  0  0  0  0  0
  130.4811  133.6932  158.9332 C   0  0  0  0  0  0  0  0  0  0  0  0
  130.1600  135.0401  158.9797 N   0  0  0  0  0  0  0  0  0  0  0  0
  129.5423  135.5741  160.1177 C   0  0  0  0  0  0  0  0  0  0  0  0
  128.3109  135.0894  160.5326 C   0  0  0  0  0  0  0  0  0  0  0  0
  127.7031  135.6178  161.6562 C   0  0  0  0  0  0  0  0  0  0  0  0
  128.3192  136.6295  162.3693 C   0  0  0  0  0  0  0  0  0  0  0  0
  127.6507  137.2003  163.5934 C   0  0  2  0  0  0  0  0  0  0  0  0
  126.2301  137.1587  163.4446 O   0  0  0  0  0  0  0  0  0  0  0  0
  128.1095  138.6183  163.8248 C   0  0  0  0  0  0  0  0  0  0  0  0
  128.7148  138.7249  164.9991 C   0  0  0  0  0  0  0  0  0  0  0  0
  128.7596  137.4550  165.7154 C   0  0  0  0  0  0  0  0  0  0  0  0
  129.2523  137.2645  166.8076 O   0  0  0  0  0  0  0  0  0  0  0  0
  128.0793  136.4181  164.8474 C   0  0  0  0  0  0  0  0  0  0  0  0
  129.5468  137.1187  161.9631 C   0  0  0  0  0  0  0  0  0  0  0  0
  130.1639  136.5946  160.8372 C   0  0  0  0  0  0  0  0  0  0  0  0
  131.4064  137.0886  160.4237 N   0  0  0  0  0  0  0  0  0  0  0  0
  132.5628  137.0051  161.3193 C   0  0  1  0  0  0  0  0  0  0  0  0
  132.2518  137.2292  162.3397 H   0  0  0  0  0  0  0  0  0  0  0  0
  133.1577  135.5930  161.2612 C   0  0  0  0  0  0  0  0  0  0  0  0
  134.2428  135.4805  162.3349 C   0  0  0  0  0  0  0  0  0  0  0  0
  135.1723  136.6567  162.2472 C   0  0  0  0  0  0  0  0  0  0  0  0
  136.2545  136.5747  162.7885 O   0  0  0  0  0  0  0  0  0  0  0  0
  134.8715  137.7864  161.6057 N   0  0  0  0  0  0  0  0  0  0  0  0
  133.6304  138.0050  160.8734 C   0  0  0  0  0  0  0  0  0  0  0  0
  130.2542  132.8169  159.8830 N   0  0  0  0  0  0  0  0  0  0  0  0
  129.8322  133.0093  160.7350 H   0  0  0  0  0  0  0  0  0  0  0  0
  129.6865  129.8269  160.0797 H   0  0  0  0  0  0  0  0  0  0  0  0
  131.4606  129.6922  160.0288 H   0  0  0  0  0  0  0  0  0  0  0  0
  130.6730  130.5775  161.3570 H   0  0  0  0  0  0  0  0  0  0  0  0
  131.6583  130.9454  157.6640 H   0  0  0  0  0  0  0  0  0  0  0  0
  130.3630  135.6134  158.2240 H   0  0  0  0  0  0  0  0  0  0  0  0
  127.8270  134.2989  159.9781 H   0  0  0  0  0  0  0  0  0  0  0  0
  126.7443  135.2390  161.9781 H   0  0  0  0  0  0  0  0  0  0  0  0
  125.8992  137.6602  162.6869 H   0  0  0  0  0  0  0  0  0  0  0  0
  127.9654  139.4329  163.1305 H   0  0  0  0  0  0  0  0  0  0  0  0
  129.1279  139.6465  165.3816 H   0  0  0  0  0  0  0  0  0  0  0  0
  127.2080  136.0061  165.3566 H   0  0  0  0  0  0  0  0  0  0  0  0
  128.7780  135.6246  164.5821 H   0  0  0  0  0  0  0  0  0  0  0  0
  130.0232  137.9120  162.5198 H   0  0  0  0  0  0  0  0  0  0  0  0
  131.5019  137.4864  159.5442 H   0  0  0  0  0  0  0  0  0  0  0  0
  132.3760  134.8573  161.4509 H   0  0  0  0  0  0  0  0  0  0  0  0
  133.5944  135.4189  160.2778 H   0  0  0  0  0  0  0  0  0  0  0  0
  133.7765  135.4600  163.3201 H   0  0  0  0  0  0  0  0  0  0  0  0
  134.8085  134.5612  162.1831 H   0  0  0  0  0  0  0  0  0  0  0  0
  135.5195  138.5080  161.6277 H   0  0  0  0  0  0  0  0  0  0  0  0
  133.8153  137.8825  159.8062 H   0  0  0  0  0  0  0  0  0  0  0  0
  133.2754  139.0184  161.0604 H   0  0  0  0  0  0  0  0  0  0  0  0
  1  2  1  0
  1 32  1  0
  1 33  1  0
  1 34  1  0
  2 30  1  0
  2  3  2  0
  3  4  1  0
  3 35  1  0
  4  5  1  0
  4  6  1  0
  6  7  1  0
  6 30  2  0
  7  8  1  0
  7 36  1  0
  8 20  1  0
  8  9  2  0
  9 10  1  0
  9 37  1  0
 10 11  2  0
 10 38  1  0
 11 12  1  0
 11 19  1  0
 12 18  1  0
 12 13  1  6
 12 14  1  0
 13 39  1  0
 14 15  2  0
 14 40  1  0
 15 16  1  0
 15 41  1  0
 16 17  2  0
 16 18  1  0
 18 42  1  0
 18 43  1  0
 19 20  2  0
 19 44  1  0
 20 21  1  0
 21 22  1  0
 21 45  1  0
 22 23  1  1
 22 29  1  0
 22 24  1  0
 24 25  1  0
 24 46  1  0
 24 47  1  0
 25 26  1  0
 25 48  1  0
 25 49  1  0
 26 27  2  0
 26 28  1  0
 28 29  1  0
 28 50  1  0
 29 51  1  0
 29 52  1  0
 30 31  1  0
M  CHG  1  30   1
M  END
>  <DOCK_score>  (1) 
-48.186749

>  <SMILES>  (1) 
Cc1c[nH]c(Nc2ccc([C@]3(O)C=CC(=O)C3)cc2N[C@H]2CCC(=O)NC2)[nH+]1

$$$$
