CCc1ccc(-c2c[nH]c(N[C@@H](Cc3ccccc3Br)c3ccc(F)cc3)[nH+]2)cc1
     RDKit          3D

 54 57  0  0  1  0  0  0  0  0999 V2000
  130.5750  128.5406  151.6026 C   0  0  0  0  0  0  0  0  0  0  0  0
  131.6534  129.5665  151.9575 C   0  0  0  0  0  0  0  0  0  0  0  0
  131.2710  130.2775  153.2300 C   0  0  0  0  0  0  0  0  0  0  0  0
  131.6780  129.7699  154.4510 C   0  0  0  0  0  0  0  0  0  0  0  0
  131.3307  130.4158  155.6201 C   0  0  0  0  0  0  0  0  0  0  0  0
  130.5684  131.5817  155.5690 C   0  0  0  0  0  0  0  0  0  0  0  0
  130.1920  132.2805  156.8220 C   0  0  0  0  0  0  0  0  0  0  0  0
  129.4628  131.7580  157.8390 C   0  0  0  0  0  0  0  0  0  0  0  0
  129.3453  132.7410  158.7913 N   0  0  0  0  0  0  0  0  0  0  0  0
  128.8748  132.6690  159.6365 H   0  0  0  0  0  0  0  0  0  0  0  0
  130.0112  133.8348  158.3302 C   0  0  0  0  0  0  0  0  0  0  0  0
  130.1328  135.0438  158.9936 N   0  0  0  0  0  0  0  0  0  0  0  0
  129.0735  135.4910  159.9015 C   0  0  1  0  0  0  0  0  0  0  0  0
  128.9501  134.7623  160.7027 H   0  0  0  0  0  0  0  0  0  0  0  0
  129.4534  136.8470  160.4997 C   0  0  0  0  0  0  0  0  0  0  0  0
  130.7464  136.7151  161.2625 C   0  0  0  0  0  0  0  0  0  0  0  0
  130.8309  135.8468  162.3349 C   0  0  0  0  0  0  0  0  0  0  0  0
  132.0184  135.7216  163.0310 C   0  0  0  0  0  0  0  0  0  0  0  0
  133.1189  136.4728  162.6623 C   0  0  0  0  0  0  0  0  0  0  0  0
  133.0337  137.3454  161.5940 C   0  0  0  0  0  0  0  0  0  0  0  0
  131.8470  137.4669  160.8934 C   0  0  0  0  0  0  0  0  0  0  0  0
  131.7299  138.6600  159.4310 Br  0  0  0  0  0  0  0  0  0  0  0  0
  127.7805  135.6228  159.1387 C   0  0  0  0  0  0  0  0  0  0  0  0
  126.5750  135.4113  159.7813 C   0  0  0  0  0  0  0  0  0  0  0  0
  125.3883  135.5374  159.0842 C   0  0  0  0  0  0  0  0  0  0  0  0
  125.4077  135.8652  157.7392 C   0  0  0  0  0  0  0  0  0  0  0  0
  124.2485  135.9834  157.0554 F   0  0  0  0  0  0  0  0  0  0  0  0
  126.6161  136.0713  157.0952 C   0  0  0  0  0  0  0  0  0  0  0  0
  127.8013  135.9497  157.7956 C   0  0  0  0  0  0  0  0  0  0  0  0
  130.5182  133.5547  157.1545 N   0  0  0  0  0  0  0  0  0  0  0  0
  131.0399  134.1628  156.6076 H   0  0  0  0  0  0  0  0  0  0  0  0
  130.1564  132.0851  154.3363 C   0  0  0  0  0  0  0  0  0  0  0  0
  130.5144  131.4339  153.1734 C   0  0  0  0  0  0  0  0  0  0  0  0
  130.4845  127.8145  152.4105 H   0  0  0  0  0  0  0  0  0  0  0  0
  129.6210  129.0490  151.4626 H   0  0  0  0  0  0  0  0  0  0  0  0
  130.8512  128.0268  150.6818 H   0  0  0  0  0  0  0  0  0  0  0  0
  131.7431  130.2927  151.1491 H   0  0  0  0  0  0  0  0  0  0  0  0
  132.6067  129.0582  152.0970 H   0  0  0  0  0  0  0  0  0  0  0  0
  132.2686  128.8665  154.4894 H   0  0  0  0  0  0  0  0  0  0  0  0
  131.6491  130.0190  156.5727 H   0  0  0  0  0  0  0  0  0  0  0  0
  129.0500  130.7613  157.8890 H   0  0  0  0  0  0  0  0  0  0  0  0
  130.9193  135.5949  158.8572 H   0  0  0  0  0  0  0  0  0  0  0  0
  129.5768  137.5758  159.6986 H   0  0  0  0  0  0  0  0  0  0  0  0
  128.6653  137.1797  161.1753 H   0  0  0  0  0  0  0  0  0  0  0  0
  129.9700  135.2632  162.6262 H   0  0  0  0  0  0  0  0  0  0  0  0
  132.0854  135.0396  163.8657 H   0  0  0  0  0  0  0  0  0  0  0  0
  134.0454  136.3776  163.2090 H   0  0  0  0  0  0  0  0  0  0  0  0
  133.8934  137.9324  161.3062 H   0  0  0  0  0  0  0  0  0  0  0  0
  126.5603  135.1513  160.8295 H   0  0  0  0  0  0  0  0  0  0  0  0
  124.4465  135.3768  159.5876 H   0  0  0  0  0  0  0  0  0  0  0  0
  126.6324  136.3267  156.0460 H   0  0  0  0  0  0  0  0  0  0  0  0
  128.7439  136.1104  157.2936 H   0  0  0  0  0  0  0  0  0  0  0  0
  129.5616  132.9855  154.2911 H   0  0  0  0  0  0  0  0  0  0  0  0
  130.1995  131.8256  152.2175 H   0  0  0  0  0  0  0  0  0  0  0  0
  1  2  1  0
  1 34  1  0
  1 35  1  0
  1 36  1  0
  2  3  1  0
  2 37  1  0
  2 38  1  0
  3 33  2  0
  3  4  1  0
  4  5  2  0
  4 39  1  0
  5  6  1  0
  5 40  1  0
  6  7  1  0
  6 32  2  0
  7 30  1  0
  7  8  2  0
  8  9  1  0
  8 41  1  0
  9 10  1  0
  9 11  1  0
 11 12  1  0
 11 30  2  0
 12 13  1  0
 12 42  1  0
 13 14  1  1
 13 15  1  0
 13 23  1  0
 15 16  1  0
 15 43  1  0
 15 44  1  0
 16 21  1  0
 16 17  2  0
 17 18  1  0
 17 45  1  0
 18 19  2  0
 18 46  1  0
 19 20  1  0
 19 47  1  0
 20 21  2  0
 20 48  1  0
 21 22  1  0
 23 29  1  0
 23 24  2  0
 24 25  1  0
 24 49  1  0
 25 26  2  0
 25 50  1  0
 26 27  1  0
 26 28  1  0
 28 29  2  0
 28 51  1  0
 29 52  1  0
 30 31  1  0
 32 33  1  0
 32 53  1  0
 33 54  1  0
M  CHG  1  30   1
M  END
>  <DOCK_score>  (1) 
-61.194107

>  <SMILES>  (1) 
CCc1ccc(-c2c[nH]c(N[C@@H](Cc3ccccc3Br)c3ccc(F)cc3)[nH+]2)cc1

$$$$
