Cn1cc(CNc2[nH]cc(C3CC3)[nH+]2)c(-c2ccc(-c3ccccc3)cc2)n1
     RDKit          3D

 52 56  0  0  1  0  0  0  0  0999 V2000
  125.3005  135.4926  159.8164 C   0  0  0  0  0  0  0  0  0  0  0  0
  126.7651  135.5091  159.8490 N   0  0  0  0  0  0  0  0  0  0  0  0
  127.5768  134.4823  159.5162 C   0  0  0  0  0  0  0  0  0  0  0  0
  128.8540  134.8907  159.6787 C   0  0  0  0  0  0  0  0  0  0  0  0
  130.0888  134.0658  159.4223 C   0  0  0  0  0  0  0  0  0  0  0  0
  130.5136  134.2419  158.0313 N   0  0  0  0  0  0  0  0  0  0  0  0
  130.5789  133.1487  157.1835 C   0  0  0  0  0  0  0  0  0  0  0  0
  130.2778  131.8646  157.5164 N   0  0  0  0  0  0  0  0  0  0  0  0
  129.9797  131.5483  158.3835 H   0  0  0  0  0  0  0  0  0  0  0  0
  130.4713  131.1001  156.3881 C   0  0  0  0  0  0  0  0  0  0  0  0
  130.8866  131.9319  155.4178 C   0  0  0  0  0  0  0  0  0  0  0  0
  131.2257  131.5380  154.0032 C   0  0  0  0  0  0  0  0  0  0  0  0
  130.1930  130.7134  153.2321 C   0  0  0  0  0  0  0  0  0  0  0  0
  130.4169  132.1846  152.8768 C   0  0  0  0  0  0  0  0  0  0  0  0
  130.9425  133.1759  155.9231 N   0  0  0  0  0  0  0  0  0  0  0  0
  131.2089  133.9693  155.4329 H   0  0  0  0  0  0  0  0  0  0  0  0
  128.8265  136.2229  160.1362 C   0  0  0  0  0  0  0  0  0  0  0  0
  130.0085  137.0619  160.4516 C   0  0  0  0  0  0  0  0  0  0  0  0
  130.5343  137.0681  161.7429 C   0  0  0  0  0  0  0  0  0  0  0  0
  131.6349  137.8436  162.0347 C   0  0  0  0  0  0  0  0  0  0  0  0
  132.2166  138.6305  161.0408 C   0  0  0  0  0  0  0  0  0  0  0  0
  133.3977  139.4701  161.3568 C   0  0  0  0  0  0  0  0  0  0  0  0
  134.3448  139.7438  160.3717 C   0  0  0  0  0  0  0  0  0  0  0  0
  135.4397  140.5293  160.6699 C   0  0  0  0  0  0  0  0  0  0  0  0
  135.6029  141.0368  161.9463 C   0  0  0  0  0  0  0  0  0  0  0  0
  134.6688  140.7642  162.9295 C   0  0  0  0  0  0  0  0  0  0  0  0
  133.5676  139.9838  162.6414 C   0  0  0  0  0  0  0  0  0  0  0  0
  131.6872  138.6283  159.7512 C   0  0  0  0  0  0  0  0  0  0  0  0
  130.5900  137.8488  159.4581 C   0  0  0  0  0  0  0  0  0  0  0  0
  127.5664  136.5924  160.2312 N   0  0  0  0  0  0  0  0  0  0  0  0
  124.9193  135.1588  160.7814 H   0  0  0  0  0  0  0  0  0  0  0  0
  124.9305  136.4961  159.6069 H   0  0  0  0  0  0  0  0  0  0  0  0
  124.9622  134.8103  159.0365 H   0  0  0  0  0  0  0  0  0  0  0  0
  127.2603  133.5063  159.1790 H   0  0  0  0  0  0  0  0  0  0  0  0
  129.8674  133.0141  159.6041 H   0  0  0  0  0  0  0  0  0  0  0  0
  130.8873  134.3898  160.0898 H   0  0  0  0  0  0  0  0  0  0  0  0
  130.7491  135.1242  157.7041 H   0  0  0  0  0  0  0  0  0  0  0  0
  130.3201  130.0343  156.2999 H   0  0  0  0  0  0  0  0  0  0  0  0
  132.2788  131.3315  153.8123 H   0  0  0  0  0  0  0  0  0  0  0  0
  130.5667  129.9644  152.5340 H   0  0  0  0  0  0  0  0  0  0  0  0
  129.2681  130.4555  153.7480 H   0  0  0  0  0  0  0  0  0  0  0  0
  129.6395  132.8945  153.1589 H   0  0  0  0  0  0  0  0  0  0  0  0
  130.9382  132.4035  151.9447 H   0  0  0  0  0  0  0  0  0  0  0  0
  130.0814  136.4619  162.5134 H   0  0  0  0  0  0  0  0  0  0  0  0
  132.0445  137.8455  163.0341 H   0  0  0  0  0  0  0  0  0  0  0  0
  134.2205  139.3446  159.3758 H   0  0  0  0  0  0  0  0  0  0  0  0
  136.1721  140.7453  159.9062 H   0  0  0  0  0  0  0  0  0  0  0  0
  136.4632  141.6479  162.1763 H   0  0  0  0  0  0  0  0  0  0  0  0
  134.8018  141.1624  163.9245 H   0  0  0  0  0  0  0  0  0  0  0  0
  132.8391  139.7713  163.4099 H   0  0  0  0  0  0  0  0  0  0  0  0
  132.1374  139.2380  158.9817 H   0  0  0  0  0  0  0  0  0  0  0  0
  130.1803  137.8468  158.4588 H   0  0  0  0  0  0  0  0  0  0  0  0
  1  2  1  0
  1 31  1  0
  1 32  1  0
  1 33  1  0
  2 30  1  0
  2  3  1  0
  3  4  2  0
  3 34  1  0
  4  5  1  0
  4 17  1  0
  5  6  1  0
  5 35  1  0
  5 36  1  0
  6 37  1  0
  7  6  1  0
  7 15  2  0
  7  8  1  0
  8  9  1  0
  8 10  1  0
 10 11  2  0
 10 38  1  0
 11 12  1  0
 11 15  1  0
 12 14  1  0
 12 13  1  0
 12 39  1  0
 13 14  1  0
 13 40  1  0
 13 41  1  0
 14 42  1  0
 14 43  1  0
 15 16  1  0
 17 18  1  0
 17 30  2  0
 18 29  1  0
 18 19  2  0
 19 20  1  0
 19 44  1  0
 20 21  2  0
 20 45  1  0
 21 22  1  0
 21 28  1  0
 22 27  1  0
 22 23  2  0
 23 24  1  0
 23 46  1  0
 24 25  2  0
 24 47  1  0
 25 26  1  0
 25 48  1  0
 26 27  2  0
 26 49  1  0
 27 50  1  0
 28 29  2  0
 28 51  1  0
 29 52  1  0
M  CHG  1  15   1
M  END
>  <DOCK_score>  (1) 
-58.003548

>  <SMILES>  (1) 
Cn1cc(CNc2[nH]cc(C3CC3)[nH+]2)c(-c2ccc(-c3ccccc3)cc2)n1

$$$$
