C1=CCC(OC[C@H]2CC[C@H]2Nc2cncc(-c3ccc(Nc4ccc(NC5=[NH+]CCN5)cc4)cc3)n2)C1
     RDKit          3D

 71 76  0  0  1  0  0  0  0  0999 V2000
  131.0939  141.9921  166.4234 C   0  0  0  0  0  0  0  0  0  0  0  0
  131.5644  142.5391  167.5112 C   0  0  0  0  0  0  0  0  0  0  0  0
  133.0729  142.4611  167.5508 C   0  0  0  0  0  0  0  0  0  0  0  0
  133.4413  141.4018  166.4863 C   0  0  0  0  0  0  0  0  0  0  0  0
  133.5713  140.1060  167.0745 O   0  0  0  0  0  0  0  0  0  0  0  0
  132.3826  139.6353  167.7127 C   0  0  0  0  0  0  0  0  0  0  0  0
  132.6364  138.2469  168.3036 C   0  0  1  0  0  0  0  0  0  0  0  0
  132.9227  137.5125  167.5507 H   0  0  0  0  0  0  0  0  0  0  0  0
  133.5592  138.2603  169.5336 C   0  0  0  0  0  0  0  0  0  0  0  0
  132.6284  137.1966  170.1434 C   0  0  0  0  0  0  0  0  0  0  0  0
  131.5185  137.7633  169.2424 C   0  0  1  0  0  0  0  0  0  0  0  0
  130.8799  136.9975  168.8023 H   0  0  0  0  0  0  0  0  0  0  0  0
  130.7594  138.8527  169.8609 N   0  0  0  0  0  0  0  0  0  0  0  0
  129.6282  139.3572  169.2300 C   0  0  0  0  0  0  0  0  0  0  0  0
  128.9090  140.3977  169.8152 C   0  0  0  0  0  0  0  0  0  0  0  0
  127.8348  140.8786  169.2175 N   0  0  0  0  0  0  0  0  0  0  0  0
  127.4362  140.3766  168.0626 C   0  0  0  0  0  0  0  0  0  0  0  0
  128.1496  139.3362  167.4706 C   0  0  0  0  0  0  0  0  0  0  0  0
  127.7025  138.7726  166.1746 C   0  0  0  0  0  0  0  0  0  0  0  0
  127.9553  137.4351  165.8705 C   0  0  0  0  0  0  0  0  0  0  0  0
  127.5339  136.9116  164.6674 C   0  0  0  0  0  0  0  0  0  0  0  0
  126.8672  137.7192  163.7520 C   0  0  0  0  0  0  0  0  0  0  0  0
  126.4469  137.1889  162.5323 N   0  0  0  0  0  0  0  0  0  0  0  0
  127.3841  136.6517  161.6428 C   0  0  0  0  0  0  0  0  0  0  0  0
  127.0201  135.6151  160.7928 C   0  0  0  0  0  0  0  0  0  0  0  0
  127.9432  135.0889  159.9113 C   0  0  0  0  0  0  0  0  0  0  0  0
  129.2387  135.5881  159.8826 C   0  0  0  0  0  0  0  0  0  0  0  0
  130.1775  135.0496  158.9919 N   0  0  0  0  0  0  0  0  0  0  0  0
  130.0886  133.7362  158.6149 C   0  0  0  0  0  0  0  0  0  0  0  0
  129.5893  132.7982  159.4034 N   0  0  0  0  0  0  0  0  0  0  0  0
  129.2465  132.9418  160.2994 H   0  0  0  0  0  0  0  0  0  0  0  0
  129.6329  131.5040  158.7052 C   0  0  0  0  0  0  0  0  0  0  0  0
  130.2670  131.8521  157.3432 C   0  0  0  0  0  0  0  0  0  0  0  0
  130.5002  133.3019  157.4347 N   0  0  0  0  0  0  0  0  0  0  0  0
  129.6042  136.6208  160.7358 C   0  0  0  0  0  0  0  0  0  0  0  0
  128.6799  137.1510  161.6136 C   0  0  0  0  0  0  0  0  0  0  0  0
  126.6187  139.0545  164.0511 C   0  0  0  0  0  0  0  0  0  0  0  0
  127.0336  139.5804  165.2554 C   0  0  0  0  0  0  0  0  0  0  0  0
  129.2359  138.8529  168.0687 N   0  0  0  0  0  0  0  0  0  0  0  0
  132.2108  141.4664  165.5520 C   0  0  0  0  0  0  0  0  0  0  0  0
  130.0445  141.9278  166.1765 H   0  0  0  0  0  0  0  0  0  0  0  0
  130.9553  142.9870  168.2825 H   0  0  0  0  0  0  0  0  0  0  0  0
  133.4133  142.1433  168.5364 H   0  0  0  0  0  0  0  0  0  0  0  0
  133.5083  143.4264  167.2926 H   0  0  0  0  0  0  0  0  0  0  0  0
  134.3512  141.6810  165.9550 H   0  0  0  0  0  0  0  0  0  0  0  0
  132.1013  140.3235  168.5096 H   0  0  0  0  0  0  0  0  0  0  0  0
  131.5763  139.5770  166.9813 H   0  0  0  0  0  0  0  0  0  0  0  0
  134.5656  137.8952  169.3282 H   0  0  0  0  0  0  0  0  0  0  0  0
  133.5534  139.2071  170.0735 H   0  0  0  0  0  0  0  0  0  0  0  0
  132.4411  137.3377  171.2079 H   0  0  0  0  0  0  0  0  0  0  0  0
  132.9135  136.1745  169.8947 H   0  0  0  0  0  0  0  0  0  0  0  0
  131.0461  139.2221  170.7109 H   0  0  0  0  0  0  0  0  0  0  0  0
  129.2310  140.8110  170.7596 H   0  0  0  0  0  0  0  0  0  0  0  0
  126.5570  140.7731  167.5765 H   0  0  0  0  0  0  0  0  0  0  0  0
  128.4774  136.8090  166.5788 H   0  0  0  0  0  0  0  0  0  0  0  0
  127.7257  135.8750  164.4330 H   0  0  0  0  0  0  0  0  0  0  0  0
  125.5050  137.1926  162.3006 H   0  0  0  0  0  0  0  0  0  0  0  0
  126.0140  135.2233  160.8186 H   0  0  0  0  0  0  0  0  0  0  0  0
  127.6592  134.2860  159.2473 H   0  0  0  0  0  0  0  0  0  0  0  0
  130.8901  135.6074  158.6426 H   0  0  0  0  0  0  0  0  0  0  0  0
  128.6283  131.1032  158.5697 H   0  0  0  0  0  0  0  0  0  0  0  0
  130.2589  130.7979  159.2508 H   0  0  0  0  0  0  0  0  0  0  0  0
  129.5782  131.6246  156.5296 H   0  0  0  0  0  0  0  0  0  0  0  0
  131.2084  131.3195  157.2079 H   0  0  0  0  0  0  0  0  0  0  0  0
  130.8939  133.8523  156.7397 H   0  0  0  0  0  0  0  0  0  0  0  0
  130.6118  137.0089  160.7131 H   0  0  0  0  0  0  0  0  0  0  0  0
  128.9644  137.9538  162.2776 H   0  0  0  0  0  0  0  0  0  0  0  0
  126.1007  139.6798  163.3390 H   0  0  0  0  0  0  0  0  0  0  0  0
  126.8404  140.6174  165.4873 H   0  0  0  0  0  0  0  0  0  0  0  0
  131.9651  140.4722  165.1784 H   0  0  0  0  0  0  0  0  0  0  0  0
  132.3975  142.1478  164.7220 H   0  0  0  0  0  0  0  0  0  0  0  0
  1 40  1  0
  1  2  2  0
  1 41  1  0
  2  3  1  0
  2 42  1  0
  3  4  1  0
  3 43  1  0
  3 44  1  0
  4  5  1  0
  4 40  1  0
  4 45  1  0
  5  6  1  0
  6  7  1  0
  6 46  1  0
  6 47  1  0
  7  8  1  6
  7 11  1  0
  7  9  1  0
  9 10  1  0
  9 48  1  0
  9 49  1  0
 10 11  1  0
 10 50  1  0
 10 51  1  0
 11 12  1  6
 11 13  1  0
 13 14  1  0
 13 52  1  0
 14 39  1  0
 14 15  2  0
 15 16  1  0
 15 53  1  0
 16 17  2  0
 17 18  1  0
 17 54  1  0
 18 19  1  0
 18 39  2  0
 19 38  1  0
 19 20  2  0
 20 21  1  0
 20 55  1  0
 21 22  2  0
 21 56  1  0
 22 23  1  0
 22 37  1  0
 23 24  1  0
 23 57  1  0
 24 36  1  0
 24 25  2  0
 25 26  1  0
 25 58  1  0
 26 27  2  0
 26 59  1  0
 27 28  1  0
 27 35  1  0
 28 29  1  0
 28 60  1  0
 29 34  2  0
 29 30  1  0
 30 31  1  0
 30 32  1  0
 32 33  1  0
 32 61  1  0
 32 62  1  0
 33 34  1  0
 33 63  1  0
 33 64  1  0
 34 65  1  0
 35 36  2  0
 35 66  1  0
 36 67  1  0
 37 38  2  0
 37 68  1  0
 38 69  1  0
 40 70  1  0
 40 71  1  0
M  CHG  1  34   1
M  END
>  <DOCK_score>  (1) 
-44.873135

>  <SMILES>  (1) 
C1=CCC(OC[C@H]2CC[C@H]2Nc2cncc(-c3ccc(Nc4ccc(NC5=[NH+]CCN5)cc4)cc3)n2)C1

$$$$
