OC[C@H](Cc1ccc(-c2ccccc2)cc1)Nc1[nH]cc(-c2cccnc2)[nH+]1
     RDKit          3D

 51 54  0  0  1  0  0  0  0  0999 V2000
  127.7405  135.3457  158.7536 O   0  0  0  0  0  0  0  0  0  0  0  0
  127.9660  135.3474  160.1647 C   0  0  0  0  0  0  0  0  0  0  0  0
  129.3212  135.9913  160.4639 C   0  0  2  0  0  0  0  0  0  0  0  0
  129.6571  135.6871  161.4552 H   0  0  0  0  0  0  0  0  0  0  0  0
  129.1835  137.5143  160.4172 C   0  0  0  0  0  0  0  0  0  0  0  0
  130.5184  138.1487  160.7119 C   0  0  0  0  0  0  0  0  0  0  0  0
  131.3927  138.4267  159.6766 C   0  0  0  0  0  0  0  0  0  0  0  0
  132.6163  139.0079  159.9407 C   0  0  0  0  0  0  0  0  0  0  0  0
  132.9703  139.3149  161.2529 C   0  0  0  0  0  0  0  0  0  0  0  0
  134.2847  139.9394  161.5431 C   0  0  0  0  0  0  0  0  0  0  0  0
  134.9201  139.6984  162.7595 C   0  0  0  0  0  0  0  0  0  0  0  0
  136.1423  140.2823  163.0244 C   0  0  0  0  0  0  0  0  0  0  0  0
  136.7365  141.1054  162.0848 C   0  0  0  0  0  0  0  0  0  0  0  0
  136.1077  141.3522  160.8776 C   0  0  0  0  0  0  0  0  0  0  0  0
  134.8878  140.7693  160.6003 C   0  0  0  0  0  0  0  0  0  0  0  0
  132.0878  139.0278  162.2924 C   0  0  0  0  0  0  0  0  0  0  0  0
  130.8647  138.4512  162.0164 C   0  0  0  0  0  0  0  0  0  0  0  0
  130.2992  135.5585  159.4627 N   0  0  0  0  0  0  0  0  0  0  0  0
  130.3032  134.2465  159.0209 C   0  0  0  0  0  0  0  0  0  0  0  0
  129.9276  133.1624  159.7529 N   0  0  0  0  0  0  0  0  0  0  0  0
  129.6115  133.1698  160.6699 H   0  0  0  0  0  0  0  0  0  0  0  0
  130.0762  132.0559  158.9525 C   0  0  0  0  0  0  0  0  0  0  0  0
  130.5456  132.4944  157.7581 C   0  0  0  0  0  0  0  0  0  0  0  0
  130.8615  131.6491  156.5808 C   0  0  0  0  0  0  0  0  0  0  0  0
  130.7272  132.1569  155.2852 C   0  0  0  0  0  0  0  0  0  0  0  0
  131.0390  131.3294  154.2204 C   0  0  0  0  0  0  0  0  0  0  0  0
  131.4595  130.0354  154.4695 C   0  0  0  0  0  0  0  0  0  0  0  0
  131.5718  129.5825  155.7031 N   0  0  0  0  0  0  0  0  0  0  0  0
  131.2914  130.3342  156.7480 C   0  0  0  0  0  0  0  0  0  0  0  0
  130.6747  133.8430  157.8305 N   0  0  0  0  0  0  0  0  0  0  0  0
  130.9916  134.4168  157.1156 H   0  0  0  0  0  0  0  0  0  0  0  0
  128.4060  134.8576  158.2496 H   0  0  0  0  0  0  0  0  0  0  0  0
  127.9614  134.3219  160.5346 H   0  0  0  0  0  0  0  0  0  0  0  0
  127.1770  135.9151  160.6579 H   0  0  0  0  0  0  0  0  0  0  0  0
  128.4558  137.8364  161.1622 H   0  0  0  0  0  0  0  0  0  0  0  0
  128.8475  137.8186  159.4260 H   0  0  0  0  0  0  0  0  0  0  0  0
  131.1171  138.1887  158.6599 H   0  0  0  0  0  0  0  0  0  0  0  0
  133.2980  139.2248  159.1317 H   0  0  0  0  0  0  0  0  0  0  0  0
  134.4568  139.0562  163.4939 H   0  0  0  0  0  0  0  0  0  0  0  0
  136.6358  140.0960  163.9667 H   0  0  0  0  0  0  0  0  0  0  0  0
  137.6929  141.5605  162.2963 H   0  0  0  0  0  0  0  0  0  0  0  0
  136.5742  141.9989  160.1493 H   0  0  0  0  0  0  0  0  0  0  0  0
  134.3996  140.9596  159.6560 H   0  0  0  0  0  0  0  0  0  0  0  0
  132.3590  139.2598  163.3118 H   0  0  0  0  0  0  0  0  0  0  0  0
  130.1781  138.2321  162.8208 H   0  0  0  0  0  0  0  0  0  0  0  0
  130.9439  136.1912  159.1094 H   0  0  0  0  0  0  0  0  0  0  0  0
  129.8638  131.0324  159.2237 H   0  0  0  0  0  0  0  0  0  0  0  0
  130.3925  133.1701  155.1195 H   0  0  0  0  0  0  0  0  0  0  0  0
  130.9506  131.6888  153.2058 H   0  0  0  0  0  0  0  0  0  0  0  0
  131.6999  129.3859  153.6409 H   0  0  0  0  0  0  0  0  0  0  0  0
  131.3960  129.9278  157.7431 H   0  0  0  0  0  0  0  0  0  0  0  0
  1  2  1  0
  1 32  1  0
  2  3  1  0
  2 33  1  0
  2 34  1  0
  3  4  1  1
  3  5  1  0
  3 18  1  0
  5  6  1  0
  5 35  1  0
  5 36  1  0
  6 17  1  0
  6  7  2  0
  7  8  1  0
  7 37  1  0
  8  9  2  0
  8 38  1  0
  9 10  1  0
  9 16  1  0
 10 15  1  0
 10 11  2  0
 11 12  1  0
 11 39  1  0
 12 13  2  0
 12 40  1  0
 13 14  1  0
 13 41  1  0
 14 15  2  0
 14 42  1  0
 15 43  1  0
 16 17  2  0
 16 44  1  0
 17 45  1  0
 18 46  1  0
 19 18  1  0
 19 30  2  0
 19 20  1  0
 20 21  1  0
 20 22  1  0
 22 23  2  0
 22 47  1  0
 23 24  1  0
 23 30  1  0
 24 29  1  0
 24 25  2  0
 25 26  1  0
 25 48  1  0
 26 27  2  0
 26 49  1  0
 27 28  1  0
 27 50  1  0
 28 29  2  0
 29 51  1  0
 30 31  1  0
M  CHG  1  30   1
M  END
>  <DOCK_score>  (1) 
-58.653297

>  <SMILES>  (1) 
OC[C@H](Cc1ccc(-c2ccccc2)cc1)Nc1[nH]cc(-c2cccnc2)[nH+]1

$$$$
