Nc1ccc(Oc2ccc(Nc3[nH]cc(-c4cc5ccccc5[nH]4)[nH+]3)cc2)cc1
     RDKit          3D

 49 53  0  0  1  0  0  0  0  0999 V2000
  129.0923  141.2195  166.4894 N   0  0  0  0  0  0  0  0  0  0  0  0
  128.5401  140.4001  165.4987 C   0  0  0  0  0  0  0  0  0  0  0  0
  128.1930  140.9379  164.2663 C   0  0  0  0  0  0  0  0  0  0  0  0
  127.6432  140.1297  163.2909 C   0  0  0  0  0  0  0  0  0  0  0  0
  127.4484  138.7785  163.5377 C   0  0  0  0  0  0  0  0  0  0  0  0
  126.9129  137.9819  162.5746 O   0  0  0  0  0  0  0  0  0  0  0  0
  127.7622  137.3729  161.7048 C   0  0  0  0  0  0  0  0  0  0  0  0
  127.2605  136.5467  160.7094 C   0  0  0  0  0  0  0  0  0  0  0  0
  128.1219  135.9323  159.8223 C   0  0  0  0  0  0  0  0  0  0  0  0
  129.4918  136.1330  159.9334 C   0  0  0  0  0  0  0  0  0  0  0  0
  130.3662  135.5068  159.0373 N   0  0  0  0  0  0  0  0  0  0  0  0
  130.0297  134.2834  158.4820 C   0  0  0  0  0  0  0  0  0  0  0  0
  129.2532  133.3326  159.0707 N   0  0  0  0  0  0  0  0  0  0  0  0
  128.8407  133.3896  159.9468 H   0  0  0  0  0  0  0  0  0  0  0  0
  129.1621  132.2780  158.1966 C   0  0  0  0  0  0  0  0  0  0  0  0
  129.8862  132.6141  157.0972 C   0  0  0  0  0  0  0  0  0  0  0  0
  130.0745  131.7807  155.8906 C   0  0  0  0  0  0  0  0  0  0  0  0
  131.0797  130.8887  155.7049 C   0  0  0  0  0  0  0  0  0  0  0  0
  130.8801  130.2901  154.3860 C   0  0  0  0  0  0  0  0  0  0  0  0
  131.5705  129.3255  153.6463 C   0  0  0  0  0  0  0  0  0  0  0  0
  131.1234  128.9751  152.4038 C   0  0  0  0  0  0  0  0  0  0  0  0
  129.9883  129.5693  151.8696 C   0  0  0  0  0  0  0  0  0  0  0  0
  129.2922  130.5225  152.5813 C   0  0  0  0  0  0  0  0  0  0  0  0
  129.7286  130.8953  153.8480 C   0  0  0  0  0  0  0  0  0  0  0  0
  129.2607  131.7950  154.7816 N   0  0  0  0  0  0  0  0  0  0  0  0
  128.4756  132.3542  154.6729 H   0  0  0  0  0  0  0  0  0  0  0  0
  130.4018  133.8533  157.3014 N   0  0  0  0  0  0  0  0  0  0  0  0
  130.9583  134.3413  156.6745 H   0  0  0  0  0  0  0  0  0  0  0  0
  129.9935  136.9556  160.9334 C   0  0  0  0  0  0  0  0  0  0  0  0
  129.1305  137.5734  161.8167 C   0  0  0  0  0  0  0  0  0  0  0  0
  127.7943  138.2406  164.7690 C   0  0  0  0  0  0  0  0  0  0  0  0
  128.3389  139.0489  165.7474 C   0  0  0  0  0  0  0  0  0  0  0  0
  129.2330  142.1634  166.3154 H   0  0  0  0  0  0  0  0  0  0  0  0
  129.3346  140.8437  167.3502 H   0  0  0  0  0  0  0  0  0  0  0  0
  128.3492  141.9887  164.0722 H   0  0  0  0  0  0  0  0  0  0  0  0
  127.3692  140.5486  162.3338 H   0  0  0  0  0  0  0  0  0  0  0  0
  126.1955  136.3873  160.6260 H   0  0  0  0  0  0  0  0  0  0  0  0
  127.7310  135.2926  159.0450 H   0  0  0  0  0  0  0  0  0  0  0  0
  131.2077  135.9297  158.8050 H   0  0  0  0  0  0  0  0  0  0  0  0
  128.6193  131.3575  158.3530 H   0  0  0  0  0  0  0  0  0  0  0  0
  131.8747  130.6623  156.3999 H   0  0  0  0  0  0  0  0  0  0  0  0
  132.4545  128.8590  154.0556 H   0  0  0  0  0  0  0  0  0  0  0  0
  131.6570  128.2296  151.8330 H   0  0  0  0  0  0  0  0  0  0  0  0
  129.6469  129.2816  150.8861 H   0  0  0  0  0  0  0  0  0  0  0  0
  128.4100  130.9785  152.1565 H   0  0  0  0  0  0  0  0  0  0  0  0
  131.0586  137.1118  161.0207 H   0  0  0  0  0  0  0  0  0  0  0  0
  129.5206  138.2132  162.5945 H   0  0  0  0  0  0  0  0  0  0  0  0
  127.6378  137.1896  164.9621 H   0  0  0  0  0  0  0  0  0  0  0  0
  128.6083  138.6299  166.7057 H   0  0  0  0  0  0  0  0  0  0  0  0
  1  2  1  0
  1 33  1  0
  1 34  1  0
  2 32  2  0
  2  3  1  0
  3  4  2  0
  3 35  1  0
  4  5  1  0
  4 36  1  0
  5  6  1  0
  5 31  2  0
  6  7  1  0
  7 30  1  0
  7  8  2  0
  8  9  1  0
  8 37  1  0
  9 10  2  0
  9 38  1  0
 10 11  1  0
 10 29  1  0
 11 39  1  0
 12 11  1  0
 12 27  2  0
 12 13  1  0
 13 14  1  0
 13 15  1  0
 15 16  2  0
 15 40  1  0
 16 17  1  0
 16 27  1  0
 17 25  1  0
 17 18  2  0
 18 19  1  0
 18 41  1  0
 19 24  2  0
 19 20  1  0
 20 21  2  0
 20 42  1  0
 21 22  1  0
 21 43  1  0
 22 23  2  0
 22 44  1  0
 23 24  1  0
 23 45  1  0
 24 25  1  0
 25 26  1  0
 27 28  1  0
 29 30  2  0
 29 46  1  0
 30 47  1  0
 31 32  1  0
 31 48  1  0
 32 49  1  0
M  CHG  1  27   1
M  END
>  <DOCK_score>  (1) 
-49.165607

>  <SMILES>  (1) 
Nc1ccc(Oc2ccc(Nc3[nH]cc(-c4cc5ccccc5[nH]4)[nH+]3)cc2)cc1

$$$$
