Cc1ccccc1-n1cc(C[N@H+]2CC=C(c3cccc4ccccc34)CC2)cn1
     RDKit          3D

 55 59  0  0  1  0  0  0  0  0999 V2000
  131.3623  129.8719  156.2958 C   0  0  0  0  0  0  0  0  0  0  0  0
  130.9707  130.6316  155.0546 C   0  0  0  0  0  0  0  0  0  0  0  0
  131.2591  130.1134  153.8069 C   0  0  0  0  0  0  0  0  0  0  0  0
  130.9001  130.8098  152.6678 C   0  0  0  0  0  0  0  0  0  0  0  0
  130.2511  132.0266  152.7734 C   0  0  0  0  0  0  0  0  0  0  0  0
  129.9547  132.5468  154.0179 C   0  0  0  0  0  0  0  0  0  0  0  0
  130.3194  131.8526  155.1638 C   0  0  0  0  0  0  0  0  0  0  0  0
  130.0254  132.3811  156.4286 N   0  0  0  0  0  0  0  0  0  0  0  0
  129.9431  133.6937  156.7431 C   0  0  0  0  0  0  0  0  0  0  0  0
  129.6413  133.7835  158.0591 C   0  0  0  0  0  0  0  0  0  0  0  0
  129.4524  135.0583  158.8403 C   0  0  0  0  0  0  0  0  0  0  0  0
  130.7410  135.4834  159.4030 N   0  0  1  0  0  0  0  0  0  0  0  0
  131.4009  135.6426  158.6564 H   0  0  0  0  0  0  0  0  0  0  0  0
  130.5578  136.7218  160.1689 C   0  0  0  0  0  0  0  0  0  0  0  0
  131.8192  137.0748  160.9028 C   0  0  0  0  0  0  0  0  0  0  0  0
  132.7826  136.2050  161.1309 C   0  0  0  0  0  0  0  0  0  0  0  0
  133.9790  136.6465  161.8720 C   0  0  0  0  0  0  0  0  0  0  0  0
  134.3290  136.0350  163.0658 C   0  0  0  0  0  0  0  0  0  0  0  0
  135.4548  136.4461  163.7690 C   0  0  0  0  0  0  0  0  0  0  0  0
  136.2437  137.4571  163.3084 C   0  0  0  0  0  0  0  0  0  0  0  0
  135.9265  138.1055  162.1025 C   0  0  0  0  0  0  0  0  0  0  0  0
  136.7246  139.1514  161.6071 C   0  0  0  0  0  0  0  0  0  0  0  0
  136.3887  139.7581  160.4358 C   0  0  0  0  0  0  0  0  0  0  0  0
  135.2634  139.3580  159.7185 C   0  0  0  0  0  0  0  0  0  0  0  0
  134.4677  138.3484  160.1697 C   0  0  0  0  0  0  0  0  0  0  0  0
  134.7864  137.6964  161.3689 C   0  0  0  0  0  0  0  0  0  0  0  0
  132.7024  134.7763  160.6675 C   0  0  0  0  0  0  0  0  0  0  0  0
  131.2557  134.4370  160.3003 C   0  0  0  0  0  0  0  0  0  0  0  0
  129.5413  132.4839  158.5679 C   0  0  0  0  0  0  0  0  0  0  0  0
  129.7653  131.6430  157.5904 N   0  0  0  0  0  0  0  0  0  0  0  0
  130.5104  129.2919  156.6507 H   0  0  0  0  0  0  0  0  0  0  0  0
  132.1887  129.1997  156.0648 H   0  0  0  0  0  0  0  0  0  0  0  0
  131.6711  130.5746  157.0696 H   0  0  0  0  0  0  0  0  0  0  0  0
  131.7658  129.1636  153.7213 H   0  0  0  0  0  0  0  0  0  0  0  0
  131.1273  130.4030  151.6935 H   0  0  0  0  0  0  0  0  0  0  0  0
  129.9717  132.5681  151.8817 H   0  0  0  0  0  0  0  0  0  0  0  0
  129.4435  133.4946  154.0997 H   0  0  0  0  0  0  0  0  0  0  0  0
  130.0913  134.5215  156.0656 H   0  0  0  0  0  0  0  0  0  0  0  0
  128.7416  134.8871  159.6488 H   0  0  0  0  0  0  0  0  0  0  0  0
  129.0702  135.8362  158.1793 H   0  0  0  0  0  0  0  0  0  0  0  0
  130.2982  137.5320  159.4876 H   0  0  0  0  0  0  0  0  0  0  0  0
  129.7491  136.5852  160.8870 H   0  0  0  0  0  0  0  0  0  0  0  0
  131.9425  138.0865  161.2599 H   0  0  0  0  0  0  0  0  0  0  0  0
  133.7210  135.2309  163.4531 H   0  0  0  0  0  0  0  0  0  0  0  0
  135.7090  135.9554  164.6969 H   0  0  0  0  0  0  0  0  0  0  0  0
  137.1139  137.7610  163.8713 H   0  0  0  0  0  0  0  0  0  0  0  0
  137.5999  139.4715  162.1527 H   0  0  0  0  0  0  0  0  0  0  0  0
  137.0032  140.5616  160.0573 H   0  0  0  0  0  0  0  0  0  0  0  0
  135.0183  139.8554  158.7917 H   0  0  0  0  0  0  0  0  0  0  0  0
  133.5984  138.0484  159.6034 H   0  0  0  0  0  0  0  0  0  0  0  0
  133.3399  134.6419  159.7936 H   0  0  0  0  0  0  0  0  0  0  0  0
  133.0387  134.1160  161.4668 H   0  0  0  0  0  0  0  0  0  0  0  0
  131.2234  133.4723  159.7938 H   0  0  0  0  0  0  0  0  0  0  0  0
  130.6480  134.3988  161.2045 H   0  0  0  0  0  0  0  0  0  0  0  0
  129.3153  132.2201  159.5905 H   0  0  0  0  0  0  0  0  0  0  0  0
  1  2  1  0
  1 31  1  0
  1 32  1  0
  1 33  1  0
  2  7  2  0
  2  3  1  0
  3  4  2  0
  3 34  1  0
  4  5  1  0
  4 35  1  0
  5  6  2  0
  5 36  1  0
  6  7  1  0
  6 37  1  0
  7  8  1  0
  8 30  1  0
  8  9  1  0
  9 10  2  0
  9 38  1  0
 10 11  1  0
 10 29  1  0
 11 12  1  0
 11 39  1  0
 11 40  1  0
 12 13  1  6
 12 28  1  0
 12 14  1  0
 14 15  1  0
 14 41  1  0
 14 42  1  0
 15 16  2  0
 15 43  1  0
 16 17  1  0
 16 27  1  0
 17 26  1  0
 17 18  2  0
 18 19  1  0
 18 44  1  0
 19 20  2  0
 19 45  1  0
 20 21  1  0
 20 46  1  0
 21 26  2  0
 21 22  1  0
 22 23  2  0
 22 47  1  0
 23 24  1  0
 23 48  1  0
 24 25  2  0
 24 49  1  0
 25 26  1  0
 25 50  1  0
 27 28  1  0
 27 51  1  0
 27 52  1  0
 28 53  1  0
 28 54  1  0
 29 30  2  0
 29 55  1  0
M  CHG  1  12   1
M  END
>  <DOCK_score>  (1) 
-58.6572

>  <SMILES>  (1) 
Cc1ccccc1-n1cc(C[N@H+]2CC=C(c3cccc4ccccc34)CC2)cn1

$$$$
