C1=C(c2noc([C@H](Nc3[nH]cc(-c4cccnc4)[nH+]3)c3ccccc3)n2)CCCO1
     RDKit          3D

 51 55  0  0  1  0  0  0  0  0999 V2000
  130.1281  141.4081  162.0971 C   0  0  0  0  0  0  0  0  0  0  0  0
  129.6543  140.2047  162.3892 C   0  0  0  0  0  0  0  0  0  0  0  0
  129.8702  139.1032  161.4331 C   0  0  0  0  0  0  0  0  0  0  0  0
  130.4996  139.1797  160.2856 N   0  0  0  0  0  0  0  0  0  0  0  0
  130.5023  138.0963  159.7402 O   0  0  0  0  0  0  0  0  0  0  0  0
  129.8627  137.1993  160.4973 C   0  0  0  0  0  0  0  0  0  0  0  0
  129.6502  135.7433  160.1714 C   0  0  2  0  0  0  0  0  0  0  0  0
  130.1123  135.1272  160.9427 H   0  0  0  0  0  0  0  0  0  0  0  0
  130.2587  135.4394  158.8739 N   0  0  0  0  0  0  0  0  0  0  0  0
  130.1908  134.1552  158.3613 C   0  0  0  0  0  0  0  0  0  0  0  0
  129.5952  133.0910  158.9655 N   0  0  0  0  0  0  0  0  0  0  0  0
  129.1458  133.0958  159.8251 H   0  0  0  0  0  0  0  0  0  0  0  0
  129.7455  132.0095  158.1319 C   0  0  0  0  0  0  0  0  0  0  0  0
  130.4354  132.4415  157.0473 C   0  0  0  0  0  0  0  0  0  0  0  0
  130.8362  131.6158  155.8819 C   0  0  0  0  0  0  0  0  0  0  0  0
  130.9558  132.1892  154.6126 C   0  0  0  0  0  0  0  0  0  0  0  0
  131.3386  131.3772  153.5591 C   0  0  0  0  0  0  0  0  0  0  0  0
  131.5770  130.0347  153.7916 C   0  0  0  0  0  0  0  0  0  0  0  0
  131.4506  129.5207  154.9995 N   0  0  0  0  0  0  0  0  0  0  0  0
  131.0941  130.2549  156.0337 C   0  0  0  0  0  0  0  0  0  0  0  0
  130.6945  133.7624  157.2169 N   0  0  0  0  0  0  0  0  0  0  0  0
  131.1752  134.3262  156.5908 H   0  0  0  0  0  0  0  0  0  0  0  0
  128.1727  135.4519  160.1139 C   0  0  0  0  0  0  0  0  0  0  0  0
  127.5024  135.0506  161.2545 C   0  0  0  0  0  0  0  0  0  0  0  0
  126.1464  134.7877  161.2027 C   0  0  0  0  0  0  0  0  0  0  0  0
  125.4622  134.9173  160.0085 C   0  0  0  0  0  0  0  0  0  0  0  0
  126.1336  135.3136  158.8669 C   0  0  0  0  0  0  0  0  0  0  0  0
  127.4888  135.5807  158.9196 C   0  0  0  0  0  0  0  0  0  0  0  0
  129.4556  137.8216  161.5747 N   0  0  0  0  0  0  0  0  0  0  0  0
  128.9093  139.9230  163.6659 C   0  0  0  0  0  0  0  0  0  0  0  0
  129.1770  141.0486  164.6706 C   0  0  0  0  0  0  0  0  0  0  0  0
  129.0008  142.3902  163.9464 C   0  0  0  0  0  0  0  0  0  0  0  0
  129.9823  142.4739  162.9095 O   0  0  0  0  0  0  0  0  0  0  0  0
  130.6519  141.5418  161.1621 H   0  0  0  0  0  0  0  0  0  0  0  0
  130.7091  136.1380  158.3739 H   0  0  0  0  0  0  0  0  0  0  0  0
  129.3867  131.0063  158.3085 H   0  0  0  0  0  0  0  0  0  0  0  0
  130.7587  133.2398  154.4587 H   0  0  0  0  0  0  0  0  0  0  0  0
  131.4457  131.7866  152.5655 H   0  0  0  0  0  0  0  0  0  0  0  0
  131.8715  129.3973  152.9708 H   0  0  0  0  0  0  0  0  0  0  0  0
  131.0012  129.7979  157.0079 H   0  0  0  0  0  0  0  0  0  0  0  0
  128.0377  134.9457  162.1865 H   0  0  0  0  0  0  0  0  0  0  0  0
  125.6219  134.4785  162.0946 H   0  0  0  0  0  0  0  0  0  0  0  0
  124.4034  134.7093  159.9675 H   0  0  0  0  0  0  0  0  0  0  0  0
  125.5990  135.4149  157.9338 H   0  0  0  0  0  0  0  0  0  0  0  0
  128.0132  135.8903  158.0278 H   0  0  0  0  0  0  0  0  0  0  0  0
  127.8406  139.8673  163.4584 H   0  0  0  0  0  0  0  0  0  0  0  0
  129.2486  138.9748  164.0831 H   0  0  0  0  0  0  0  0  0  0  0  0
  128.4685  140.9807  165.4962 H   0  0  0  0  0  0  0  0  0  0  0  0
  130.1948  140.9668  165.0520 H   0  0  0  0  0  0  0  0  0  0  0  0
  128.0025  142.4451  163.5124 H   0  0  0  0  0  0  0  0  0  0  0  0
  129.1401  143.2094  164.6517 H   0  0  0  0  0  0  0  0  0  0  0  0
  1 33  1  0
  1  2  2  0
  1 34  1  0
  2  3  1  0
  2 30  1  0
  3 29  1  0
  3  4  2  0
  4  5  1  0
  5  6  1  0
  6  7  1  0
  6 29  2  0
  7  8  1  1
  7  9  1  0
  7 23  1  0
  9 35  1  0
 10  9  1  0
 10 21  2  0
 10 11  1  0
 11 12  1  0
 11 13  1  0
 13 14  2  0
 13 36  1  0
 14 15  1  0
 14 21  1  0
 15 20  1  0
 15 16  2  0
 16 17  1  0
 16 37  1  0
 17 18  2  0
 17 38  1  0
 18 19  1  0
 18 39  1  0
 19 20  2  0
 20 40  1  0
 21 22  1  0
 23 28  1  0
 23 24  2  0
 24 25  1  0
 24 41  1  0
 25 26  2  0
 25 42  1  0
 26 27  1  0
 26 43  1  0
 27 28  2  0
 27 44  1  0
 28 45  1  0
 30 31  1  0
 30 46  1  0
 30 47  1  0
 31 32  1  0
 31 48  1  0
 31 49  1  0
 32 33  1  0
 32 50  1  0
 32 51  1  0
M  CHG  1  21   1
M  END
>  <DOCK_score>  (1) 
-56.415741

>  <SMILES>  (1) 
C1=C(c2noc([C@H](Nc3[nH]cc(-c4cccnc4)[nH+]3)c3ccccc3)n2)CCCO1

$$$$
