CCC=CC=CCNC(N[C@H]1CCC(=O)NC1)=[NH+]CC=CCO
     RDKit          3D

 52 52  0  0  1  0  0  0  0  0999 V2000
  129.8990  128.8848  151.0747 C   0  0  0  0  0  0  0  0  0  0  0  0
  129.9143  130.4147  151.0645 C   0  0  0  0  0  0  0  0  0  0  0  0
  130.6372  130.9179  152.2873 C   0  0  0  0  0  0  0  0  0  0  0  0
  129.9630  131.1537  153.4076 C   0  0  0  0  0  0  0  0  0  0  0  0
  130.6688  131.6449  154.6014 C   0  0  0  0  0  0  0  0  0  0  0  0
  129.9944  131.8807  155.7217 C   0  0  0  0  0  0  0  0  0  0  0  0
  130.7173  132.3840  156.9445 C   0  0  0  0  0  0  0  0  0  0  0  0
  129.8096  133.2123  157.7420 N   0  0  0  0  0  0  0  0  0  0  0  0
  130.2503  133.7847  158.9118 C   0  0  0  0  0  0  0  0  0  0  0  0
  129.3985  134.5621  159.6602 N   0  0  0  0  0  0  0  0  0  0  0  0
  127.9585  134.2929  159.6466 C   0  0  1  0  0  0  0  0  0  0  0  0
  127.5777  134.3914  158.6300 H   0  0  0  0  0  0  0  0  0  0  0  0
  127.6957  132.8730  160.1627 C   0  0  0  0  0  0  0  0  0  0  0  0
  126.2114  132.5542  159.9664 C   0  0  0  0  0  0  0  0  0  0  0  0
  125.3722  133.6799  160.4990 C   0  0  0  0  0  0  0  0  0  0  0  0
  124.1996  133.4655  160.7227 O   0  0  0  0  0  0  0  0  0  0  0  0
  125.8474  134.9024  160.7396 N   0  0  0  0  0  0  0  0  0  0  0  0
  127.2420  135.2868  160.5614 C   0  0  0  0  0  0  0  0  0  0  0  0
  131.4756  133.5901  159.3112 N   0  0  0  0  0  0  0  0  0  0  0  0
  132.0765  133.0414  158.7832 H   0  0  0  0  0  0  0  0  0  0  0  0
  131.9454  134.2002  160.5576 C   0  0  0  0  0  0  0  0  0  0  0  0
  132.5243  135.5602  160.2641 C   0  0  0  0  0  0  0  0  0  0  0  0
  132.0071  136.6266  160.8223 C   0  0  0  0  0  0  0  0  0  0  0  0
  132.5859  137.9867  160.5289 C   0  0  0  0  0  0  0  0  0  0  0  0
  131.5808  138.8157  159.9421 O   0  0  0  0  0  0  0  0  0  0  0  0
  129.3870  128.5325  151.9701 H   0  0  0  0  0  0  0  0  0  0  0  0
  129.3762  128.5207  150.1902 H   0  0  0  0  0  0  0  0  0  0  0  0
  130.9229  128.5111  151.0710 H   0  0  0  0  0  0  0  0  0  0  0  0
  128.8904  130.7883  151.0682 H   0  0  0  0  0  0  0  0  0  0  0  0
  130.4263  130.7669  150.1691 H   0  0  0  0  0  0  0  0  0  0  0  0
  131.7034  131.0869  152.2529 H   0  0  0  0  0  0  0  0  0  0  0  0
  128.8969  130.9845  153.4420 H   0  0  0  0  0  0  0  0  0  0  0  0
  131.7348  131.8140  154.5670 H   0  0  0  0  0  0  0  0  0  0  0  0
  128.9283  131.7117  155.7560 H   0  0  0  0  0  0  0  0  0  0  0  0
  131.5778  132.9789  156.6386 H   0  0  0  0  0  0  0  0  0  0  0  0
  131.0549  131.5367  157.5414 H   0  0  0  0  0  0  0  0  0  0  0  0
  128.8976  133.3569  157.4447 H   0  0  0  0  0  0  0  0  0  0  0  0
  129.7509  135.2889  160.1973 H   0  0  0  0  0  0  0  0  0  0  0  0
  128.3012  132.1608  159.6022 H   0  0  0  0  0  0  0  0  0  0  0  0
  127.9467  132.8152  161.2219 H   0  0  0  0  0  0  0  0  0  0  0  0
  125.9648  131.6355  160.4987 H   0  0  0  0  0  0  0  0  0  0  0  0
  126.0082  132.4225  158.9037 H   0  0  0  0  0  0  0  0  0  0  0  0
  125.2259  135.5783  161.0525 H   0  0  0  0  0  0  0  0  0  0  0  0
  127.7375  135.3050  161.5321 H   0  0  0  0  0  0  0  0  0  0  0  0
  127.2844  136.2812  160.1166 H   0  0  0  0  0  0  0  0  0  0  0  0
  132.7122  133.5679  161.0052 H   0  0  0  0  0  0  0  0  0  0  0  0
  131.1095  134.3027  161.2496 H   0  0  0  0  0  0  0  0  0  0  0  0
  133.3655  135.6559  159.5936 H   0  0  0  0  0  0  0  0  0  0  0  0
  131.1687  136.5306  161.4963 H   0  0  0  0  0  0  0  0  0  0  0  0
  132.9355  138.4406  161.4561 H   0  0  0  0  0  0  0  0  0  0  0  0
  133.4219  137.8842  159.8369 H   0  0  0  0  0  0  0  0  0  0  0  0
  131.2233  138.4725  159.1116 H   0  0  0  0  0  0  0  0  0  0  0  0
  1  2  1  0
  1 26  1  0
  1 27  1  0
  1 28  1  0
  2  3  1  0
  2 29  1  0
  2 30  1  0
  3  4  2  0
  3 31  1  0
  4  5  1  0
  4 32  1  0
  5  6  2  0
  5 33  1  0
  6  7  1  0
  6 34  1  0
  7  8  1  0
  7 35  1  0
  7 36  1  0
  8 37  1  0
  9  8  1  0
  9 10  1  0
  9 19  2  0
 10 11  1  0
 10 38  1  0
 11 12  1  6
 11 18  1  0
 11 13  1  0
 13 14  1  0
 13 39  1  0
 13 40  1  0
 14 15  1  0
 14 41  1  0
 14 42  1  0
 15 16  2  0
 15 17  1  0
 17 18  1  0
 17 43  1  0
 18 44  1  0
 18 45  1  0
 19 20  1  0
 19 21  1  0
 21 22  1  0
 21 46  1  0
 21 47  1  0
 22 23  2  0
 22 48  1  0
 23 24  1  0
 23 49  1  0
 24 25  1  0
 24 50  1  0
 24 51  1  0
 25 52  1  0
M  CHG  1  19   1
M  END
>  <DOCK_score>  (1) 
-47.37743

>  <SMILES>  (1) 
CCC=CC=CCNC(N[C@H]1CCC(=O)NC1)=[NH+]CC=CCO

$$$$
