Cc1cc(Nc2ccc(NCc3[nH]c(C)c(C)[nH+]3)c(C(N)=O)c2)ccc1Br
     RDKit          3D

 50 52  0  0  1  0  0  0  0  0999 V2000
  134.2285  139.6169  158.9035 C   0  0  0  0  0  0  0  0  0  0  0  0
  134.0603  139.2384  160.3524 C   0  0  0  0  0  0  0  0  0  0  0  0
  133.1131  138.3009  160.7150 C   0  0  0  0  0  0  0  0  0  0  0  0
  132.9592  137.9521  162.0507 C   0  0  0  0  0  0  0  0  0  0  0  0
  132.0019  137.0037  162.4208 N   0  0  0  0  0  0  0  0  0  0  0  0
  131.1968  136.4039  161.4447 C   0  0  0  0  0  0  0  0  0  0  0  0
  131.7821  135.6657  160.4201 C   0  0  0  0  0  0  0  0  0  0  0  0
  130.9980  135.0706  159.4542 C   0  0  0  0  0  0  0  0  0  0  0  0
  129.6160  135.2044  159.4975 C   0  0  0  0  0  0  0  0  0  0  0  0
  128.8258  134.6033  158.5227 N   0  0  0  0  0  0  0  0  0  0  0  0
  129.4155  134.2140  157.2394 C   0  0  0  0  0  0  0  0  0  0  0  0
  129.9332  132.8017  157.3323 C   0  0  0  0  0  0  0  0  0  0  0  0
  130.5213  132.1312  156.3546 N   0  0  0  0  0  0  0  0  0  0  0  0
  130.6922  132.4641  155.4597 H   0  0  0  0  0  0  0  0  0  0  0  0
  130.8447  130.9059  156.8179 C   0  0  0  0  0  0  0  0  0  0  0  0
  131.5340  129.8120  156.0435 C   0  0  0  0  0  0  0  0  0  0  0  0
  130.4336  130.8395  158.0997 C   0  0  0  0  0  0  0  0  0  0  0  0
  130.5780  129.6576  159.0235 C   0  0  0  0  0  0  0  0  0  0  0  0
  129.8690  132.0269  158.4031 N   0  0  0  0  0  0  0  0  0  0  0  0
  129.4826  132.2706  159.2588 H   0  0  0  0  0  0  0  0  0  0  0  0
  129.0193  135.9470  160.5273 C   0  0  0  0  0  0  0  0  0  0  0  0
  127.5532  136.0943  160.5813 C   0  0  0  0  0  0  0  0  0  0  0  0
  126.9837  136.8084  161.5722 N   0  0  0  0  0  0  0  0  0  0  0  0
  126.8579  135.5712  159.7316 O   0  0  0  0  0  0  0  0  0  0  0  0
  129.8214  136.5420  161.5047 C   0  0  0  0  0  0  0  0  0  0  0  0
  133.7589  138.5478  163.0182 C   0  0  0  0  0  0  0  0  0  0  0  0
  134.7041  139.4843  162.6494 C   0  0  0  0  0  0  0  0  0  0  0  0
  134.8552  139.8298  161.3179 C   0  0  0  0  0  0  0  0  0  0  0  0
  136.1563  141.1070  160.8162 Br  0  0  0  0  0  0  0  0  0  0  0  0
  134.9647  138.9606  158.4394 H   0  0  0  0  0  0  0  0  0  0  0  0
  133.2737  139.5140  158.3878 H   0  0  0  0  0  0  0  0  0  0  0  0
  134.5687  140.6503  158.8350 H   0  0  0  0  0  0  0  0  0  0  0  0
  132.4925  137.8397  159.9609 H   0  0  0  0  0  0  0  0  0  0  0  0
  131.8951  136.7609  163.3539 H   0  0  0  0  0  0  0  0  0  0  0  0
  132.8560  135.5580  160.3816 H   0  0  0  0  0  0  0  0  0  0  0  0
  131.4594  134.4992  158.6624 H   0  0  0  0  0  0  0  0  0  0  0  0
  127.8845  134.4420  158.6928 H   0  0  0  0  0  0  0  0  0  0  0  0
  128.6574  134.2723  156.4585 H   0  0  0  0  0  0  0  0  0  0  0  0
  130.2379  134.8874  156.9983 H   0  0  0  0  0  0  0  0  0  0  0  0
  130.7873  129.1934  155.5457 H   0  0  0  0  0  0  0  0  0  0  0  0
  132.1943  130.2551  155.2981 H   0  0  0  0  0  0  0  0  0  0  0  0
  132.1188  129.1963  156.7268 H   0  0  0  0  0  0  0  0  0  0  0  0
  129.7000  129.0178  158.9351 H   0  0  0  0  0  0  0  0  0  0  0  0
  131.4691  129.0914  158.7524 H   0  0  0  0  0  0  0  0  0  0  0  0
  130.6695  130.0089  160.0513 H   0  0  0  0  0  0  0  0  0  0  0  0
  127.5382  137.2255  162.2499 H   0  0  0  0  0  0  0  0  0  0  0  0
  126.0191  136.9053  161.6077 H   0  0  0  0  0  0  0  0  0  0  0  0
  129.3689  137.1119  162.3029 H   0  0  0  0  0  0  0  0  0  0  0  0
  133.6418  138.2784  164.0574 H   0  0  0  0  0  0  0  0  0  0  0  0
  135.3264  139.9475  163.4008 H   0  0  0  0  0  0  0  0  0  0  0  0
  1  2  1  0
  1 30  1  0
  1 31  1  0
  1 32  1  0
  2 28  2  0
  2  3  1  0
  3  4  2  0
  3 33  1  0
  4  5  1  0
  4 26  1  0
  5  6  1  0
  5 34  1  0
  6 25  1  0
  6  7  2  0
  7  8  1  0
  7 35  1  0
  8  9  2  0
  8 36  1  0
  9 10  1  0
  9 21  1  0
 10 11  1  0
 10 37  1  0
 11 38  1  0
 11 39  1  0
 12 11  1  0
 12 19  1  0
 12 13  2  0
 13 14  1  0
 13 15  1  0
 15 16  1  0
 15 17  2  0
 16 40  1  0
 16 41  1  0
 16 42  1  0
 17 18  1  0
 17 19  1  0
 18 43  1  0
 18 44  1  0
 18 45  1  0
 19 20  1  0
 21 22  1  0
 21 25  2  0
 22 23  1  0
 22 24  2  0
 23 46  1  0
 23 47  1  0
 25 48  1  0
 26 27  2  0
 26 49  1  0
 27 28  1  0
 27 50  1  0
 28 29  1  0
M  CHG  1  13   1
M  END
>  <DOCK_score>  (1) 
-45.538914

>  <SMILES>  (1) 
Cc1cc(Nc2ccc(NCc3[nH]c(C)c(C)[nH+]3)c(C(N)=O)c2)ccc1Br

$$$$
