O=[N+]([O-])c1cc(/C2=C/CC/C=C\CC2)ccc1C[NH2+]Cc1cnn(-c2cccc(Cl)c2)c1
     RDKit          3D

 58 61  0  0  0  0  0  0  0  0999 V2000
  128.8547  139.4638  161.8936 O   0  0  0  0  0  0  0  0  0  0  0  0
  129.9129  140.0607  161.9818 N   0  0  0  0  0  0  0  0  0  0  0  0
  129.9604  141.1347  162.5542 O   0  0  0  0  0  0  0  0  0  0  0  0
  131.1409  139.4807  161.3934 C   0  0  0  0  0  0  0  0  0  0  0  0
  132.3391  140.1578  161.4946 C   0  0  0  0  0  0  0  0  0  0  0  0
  133.4957  139.6095  160.9398 C   0  0  0  0  0  0  0  0  0  0  0  0
  134.7860  140.3309  161.0452 C   0  0  0  0  0  0  0  0  0  0  0  0
  135.6669  140.1622  160.0593 C   0  0  0  0  0  0  0  0  0  0  0  0
  136.9951  140.8513  160.1060 C   0  0  0  0  0  0  0  0  0  0  0  0
  138.0406  140.0967  160.8931 C   0  0  0  0  0  0  0  0  0  0  0  0
  137.4825  139.1045  161.8488 C   0  0  0  0  0  0  0  0  0  0  0  0
  136.6610  139.4728  162.7990 C   0  0  0  0  0  0  0  0  0  0  0  0
  136.2927  140.9197  162.9742 C   0  0  0  0  0  0  0  0  0  0  0  0
  134.9970  141.1984  162.2314 C   0  0  0  0  0  0  0  0  0  0  0  0
  133.4327  138.3782  160.2857 C   0  0  0  0  0  0  0  0  0  0  0  0
  132.2287  137.7114  160.1914 C   0  0  0  0  0  0  0  0  0  0  0  0
  131.0852  138.2608  160.7438 C   0  0  0  0  0  0  0  0  0  0  0  0
  129.7733  137.5271  160.6366 C   0  0  0  0  0  0  0  0  0  0  0  0
  129.9747  136.2674  159.9083 N   0  0  0  0  0  0  0  0  0  0  0  0
  130.3254  136.4660  158.9834 H   0  0  0  0  0  0  0  0  0  0  0  0
  130.6407  135.6947  160.4047 H   0  0  0  0  0  0  0  0  0  0  0  0
  128.6958  135.5522  159.8038 C   0  0  0  0  0  0  0  0  0  0  0  0
  128.9025  134.2599  159.0567 C   0  0  0  0  0  0  0  0  0  0  0  0
  128.3960  133.0078  159.4220 C   0  0  0  0  0  0  0  0  0  0  0  0
  128.7833  132.1329  158.5292 N   0  0  0  0  0  0  0  0  0  0  0  0
  129.5576  132.7988  157.5704 N   0  0  0  0  0  0  0  0  0  0  0  0
  130.1644  132.2151  156.4496 C   0  0  0  0  0  0  0  0  0  0  0  0
  130.5711  130.8880  156.4909 C   0  0  0  0  0  0  0  0  0  0  0  0
  131.1688  130.3150  155.3855 C   0  0  0  0  0  0  0  0  0  0  0  0
  131.3626  131.0614  154.2376 C   0  0  0  0  0  0  0  0  0  0  0  0
  130.9588  132.3840  154.1928 C   0  0  0  0  0  0  0  0  0  0  0  0
  131.2035  133.3174  152.7497 Cl  0  0  0  0  0  0  0  0  0  0  0  0
  130.3547  132.9609  155.2946 C   0  0  0  0  0  0  0  0  0  0  0  0
  129.6157  134.1045  157.9172 C   0  0  0  0  0  0  0  0  0  0  0  0
  132.3813  141.1101  162.0023 H   0  0  0  0  0  0  0  0  0  0  0  0
  135.4212  139.5233  159.2207 H   0  0  0  0  0  0  0  0  0  0  0  0
  136.8658  141.8361  160.5509 H   0  0  0  0  0  0  0  0  0  0  0  0
  137.3571  140.9771  159.0855 H   0  0  0  0  0  0  0  0  0  0  0  0
  138.6437  140.8142  161.4457 H   0  0  0  0  0  0  0  0  0  0  0  0
  138.6850  139.5703  160.1890 H   0  0  0  0  0  0  0  0  0  0  0  0
  137.7476  138.0623  161.7486 H   0  0  0  0  0  0  0  0  0  0  0  0
  136.2449  138.7281  163.4634 H   0  0  0  0  0  0  0  0  0  0  0  0
  137.0882  141.5570  162.5870 H   0  0  0  0  0  0  0  0  0  0  0  0
  136.1563  141.1333  164.0382 H   0  0  0  0  0  0  0  0  0  0  0  0
  134.9935  142.2424  161.9090 H   0  0  0  0  0  0  0  0  0  0  0  0
  134.1604  141.0546  162.9211 H   0  0  0  0  0  0  0  0  0  0  0  0
  134.3245  137.9487  159.8539 H   0  0  0  0  0  0  0  0  0  0  0  0
  132.1794  136.7565  159.6894 H   0  0  0  0  0  0  0  0  0  0  0  0
  129.3942  137.3126  161.6359 H   0  0  0  0  0  0  0  0  0  0  0  0
  129.0537  138.1459  160.1003 H   0  0  0  0  0  0  0  0  0  0  0  0
  128.3168  135.3376  160.8031 H   0  0  0  0  0  0  0  0  0  0  0  0
  127.9763  136.1708  159.2675 H   0  0  0  0  0  0  0  0  0  0  0  0
  127.7877  132.7998  160.2898 H   0  0  0  0  0  0  0  0  0  0  0  0
  130.4198  130.3041  157.3868 H   0  0  0  0  0  0  0  0  0  0  0  0
  131.4847  129.2828  155.4175 H   0  0  0  0  0  0  0  0  0  0  0  0
  131.8299  130.6109  153.3745 H   0  0  0  0  0  0  0  0  0  0  0  0
  130.0354  133.9920  155.2581 H   0  0  0  0  0  0  0  0  0  0  0  0
  130.1375  134.8835  157.3811 H   0  0  0  0  0  0  0  0  0  0  0  0
  1  2  2  0
  2  3  1  0
  2  4  1  0
  4 17  2  0
  4  5  1  0
  5  6  2  0
  5 35  1  0
  6  7  1  0
  6 15  1  0
  7 14  1  0
  7  8  2  0
  8  9  1  0
  8 36  1  0
  9 10  1  0
  9 37  1  0
  9 38  1  0
 10 11  1  0
 10 39  1  0
 10 40  1  0
 11 12  2  0
 11 41  1  0
 12 13  1  0
 12 42  1  0
 13 14  1  0
 13 43  1  0
 13 44  1  0
 14 45  1  0
 14 46  1  0
 15 16  2  0
 15 47  1  0
 16 17  1  0
 16 48  1  0
 17 18  1  0
 18 19  1  0
 18 49  1  0
 18 50  1  0
 19 20  1  0
 19 21  1  0
 19 22  1  0
 22 23  1  0
 22 51  1  0
 22 52  1  0
 23 34  2  0
 23 24  1  0
 24 25  2  0
 24 53  1  0
 25 26  1  0
 26 27  1  0
 26 34  1  0
 27 33  1  0
 27 28  2  0
 28 29  1  0
 28 54  1  0
 29 30  2  0
 29 55  1  0
 30 31  1  0
 30 56  1  0
 31 32  1  0
 31 33  2  0
 33 57  1  0
 34 58  1  0
M  CHG  3   2   1   3  -1  19   1
M  END
>  <DOCK_score>  (1) 
-58.223354

>  <SMILES>  (1) 
O=[N+]([O-])c1cc(/C2=C/CC/C=C\CC2)ccc1C[NH2+]Cc1cnn(-c2cccc(Cl)c2)c1

$$$$
