Cc1c(OCC2=CCCOC2)cccc1N1CC[NH+](C(c2ccccn2)c2ccccn2)CC1
     RDKit          3D

 67 71  0  0  1  0  0  0  0  0999 V2000
  133.5988  139.0754  163.1776 C   0  0  0  0  0  0  0  0  0  0  0  0
  133.9812  139.5260  161.7912 C   0  0  0  0  0  0  0  0  0  0  0  0
  134.8486  140.5940  161.6227 C   0  0  0  0  0  0  0  0  0  0  0  0
  135.3553  141.2360  162.7079 O   0  0  0  0  0  0  0  0  0  0  0  0
  136.5866  140.7412  163.2381 C   0  0  0  0  0  0  0  0  0  0  0  0
  136.3808  140.3102  164.6675 C   0  0  0  0  0  0  0  0  0  0  0  0
  136.6120  139.0704  164.9822 C   0  0  0  0  0  0  0  0  0  0  0  0
  136.4326  138.5442  166.3795 C   0  0  0  0  0  0  0  0  0  0  0  0
  136.3551  139.7143  167.3644 C   0  0  0  0  0  0  0  0  0  0  0  0
  135.4341  140.6817  166.8453 O   0  0  0  0  0  0  0  0  0  0  0  0
  135.9117  141.3308  165.6651 C   0  0  0  0  0  0  0  0  0  0  0  0
  135.1951  141.0103  160.3451 C   0  0  0  0  0  0  0  0  0  0  0  0
  134.6809  140.3583  159.2403 C   0  0  0  0  0  0  0  0  0  0  0  0
  133.8210  139.2899  159.4038 C   0  0  0  0  0  0  0  0  0  0  0  0
  133.4703  138.8685  160.6808 C   0  0  0  0  0  0  0  0  0  0  0  0
  132.6003  137.7885  160.8465 N   0  0  0  0  0  0  0  0  0  0  0  0
  133.1916  136.5503  160.3201 C   0  0  0  0  0  0  0  0  0  0  0  0
  132.2347  135.3834  160.5739 C   0  0  0  0  0  0  0  0  0  0  0  0
  130.9497  135.6516  159.9148 N   0  0  0  0  0  0  0  0  0  0  0  0
  131.0983  135.7677  158.9236 H   0  0  0  0  0  0  0  0  0  0  0  0
  130.0375  134.5230  160.1435 C   0  0  0  0  0  0  0  0  0  0  0  0
  128.7190  134.7978  159.4674 C   0  0  0  0  0  0  0  0  0  0  0  0
  127.5563  134.2718  159.9983 C   0  0  0  0  0  0  0  0  0  0  0  0
  126.3481  134.5348  159.3715 C   0  0  0  0  0  0  0  0  0  0  0  0
  126.3558  135.3118  158.2229 C   0  0  0  0  0  0  0  0  0  0  0  0
  127.5583  135.7993  157.7479 C   0  0  0  0  0  0  0  0  0  0  0  0
  128.6886  135.5329  158.3732 N   0  0  0  0  0  0  0  0  0  0  0  0
  130.6416  133.2654  159.5741 C   0  0  0  0  0  0  0  0  0  0  0  0
  130.9325  133.1976  158.2244 C   0  0  0  0  0  0  0  0  0  0  0  0
  131.4929  132.0381  157.7114 C   0  0  0  0  0  0  0  0  0  0  0  0
  131.7310  130.9813  158.5771 C   0  0  0  0  0  0  0  0  0  0  0  0
  131.4092  131.1201  159.9138 C   0  0  0  0  0  0  0  0  0  0  0  0
  130.8818  132.2403  160.3679 N   0  0  0  0  0  0  0  0  0  0  0  0
  130.3599  136.8775  160.4683 C   0  0  0  0  0  0  0  0  0  0  0  0
  131.3013  138.0568  160.2135 C   0  0  0  0  0  0  0  0  0  0  0  0
  134.3564  138.3908  163.5590 H   0  0  0  0  0  0  0  0  0  0  0  0
  133.5284  139.9422  163.8347 H   0  0  0  0  0  0  0  0  0  0  0  0
  132.6350  138.5676  163.1416 H   0  0  0  0  0  0  0  0  0  0  0  0
  136.9207  139.8892  162.6462 H   0  0  0  0  0  0  0  0  0  0  0  0
  137.3404  141.5275  163.2008 H   0  0  0  0  0  0  0  0  0  0  0  0
  136.9497  138.3932  164.2116 H   0  0  0  0  0  0  0  0  0  0  0  0
  137.2763  137.9054  166.6406 H   0  0  0  0  0  0  0  0  0  0  0  0
  135.5101  137.9658  166.4298 H   0  0  0  0  0  0  0  0  0  0  0  0
  137.3403  140.1674  167.4743 H   0  0  0  0  0  0  0  0  0  0  0  0
  136.0053  139.3570  168.3329 H   0  0  0  0  0  0  0  0  0  0  0  0
  136.7404  141.9894  165.9250 H   0  0  0  0  0  0  0  0  0  0  0  0
  135.1055  141.9197  165.2276 H   0  0  0  0  0  0  0  0  0  0  0  0
  135.8680  141.8449  160.2140 H   0  0  0  0  0  0  0  0  0  0  0  0
  134.9525  140.6845  158.2472 H   0  0  0  0  0  0  0  0  0  0  0  0
  133.4211  138.7817  158.5388 H   0  0  0  0  0  0  0  0  0  0  0  0
  134.1402  136.3584  160.8216 H   0  0  0  0  0  0  0  0  0  0  0  0
  133.3610  136.6550  159.2485 H   0  0  0  0  0  0  0  0  0  0  0  0
  132.6650  134.4664  160.1716 H   0  0  0  0  0  0  0  0  0  0  0  0
  132.0761  135.2703  161.6465 H   0  0  0  0  0  0  0  0  0  0  0  0
  129.8773  134.3967  161.2142 H   0  0  0  0  0  0  0  0  0  0  0  0
  127.5882  133.6664  160.8921 H   0  0  0  0  0  0  0  0  0  0  0  0
  125.4233  134.1400  159.7656 H   0  0  0  0  0  0  0  0  0  0  0  0
  125.4337  135.5328  157.7060 H   0  0  0  0  0  0  0  0  0  0  0  0
  127.5729  136.4052  156.8540 H   0  0  0  0  0  0  0  0  0  0  0  0
  130.7292  134.0390  157.5783 H   0  0  0  0  0  0  0  0  0  0  0  0
  131.7339  131.9579  156.6617 H   0  0  0  0  0  0  0  0  0  0  0  0
  132.1620  130.0611  158.2112 H   0  0  0  0  0  0  0  0  0  0  0  0
  131.5915  130.3016  160.5945 H   0  0  0  0  0  0  0  0  0  0  0  0
  130.2109  136.7567  161.5413 H   0  0  0  0  0  0  0  0  0  0  0  0
  129.4004  137.0682  159.9876 H   0  0  0  0  0  0  0  0  0  0  0  0
  130.8706  138.9640  160.6374 H   0  0  0  0  0  0  0  0  0  0  0  0
  131.4395  138.1864  159.1402 H   0  0  0  0  0  0  0  0  0  0  0  0
  1  2  1  0
  1 36  1  0
  1 37  1  0
  1 38  1  0
  2 15  2  0
  2  3  1  0
  3  4  1  0
  3 12  2  0
  4  5  1  0
  5  6  1  0
  5 39  1  0
  5 40  1  0
  6 11  1  0
  6  7  2  0
  7  8  1  0
  7 41  1  0
  8  9  1  0
  8 42  1  0
  8 43  1  0
  9 10  1  0
  9 44  1  0
  9 45  1  0
 10 11  1  0
 11 46  1  0
 11 47  1  0
 12 13  1  0
 12 48  1  0
 13 14  2  0
 13 49  1  0
 14 15  1  0
 14 50  1  0
 15 16  1  0
 16 35  1  0
 16 17  1  0
 17 18  1  0
 17 51  1  0
 17 52  1  0
 18 19  1  0
 18 53  1  0
 18 54  1  0
 19 20  1  0
 19 21  1  0
 19 34  1  0
 21 22  1  0
 21 28  1  0
 21 55  1  0
 22 27  1  0
 22 23  2  0
 23 24  1  0
 23 56  1  0
 24 25  2  0
 24 57  1  0
 25 26  1  0
 25 58  1  0
 26 27  2  0
 26 59  1  0
 28 33  1  0
 28 29  2  0
 29 30  1  0
 29 60  1  0
 30 31  2  0
 30 61  1  0
 31 32  1  0
 31 62  1  0
 32 33  2  0
 32 63  1  0
 34 35  1  0
 34 64  1  0
 34 65  1  0
 35 66  1  0
 35 67  1  0
M  CHG  1  19   1
M  END
>  <DOCK_score>  (1) 
-55.728527

>  <SMILES>  (1) 
Cc1c(OCC2=CCCOC2)cccc1N1CC[NH+](C(c2ccccn2)c2ccccn2)CC1

$$$$
