CC=Cc1c[nH]c(Nc2ccc(Nc3ccc(CC)cc3)cc2)[nH+]1
     RDKit          3D

 47 49  0  0  1  0  0  0  0  0999 V2000
  130.6592  131.9965  152.3813 C   0  0  0  0  0  0  0  0  0  0  0  0
  130.4183  132.6698  153.7078 C   0  0  0  0  0  0  0  0  0  0  0  0
  129.9830  131.9617  154.7415 C   0  0  0  0  0  0  0  0  0  0  0  0
  129.7469  132.6218  156.0419 C   0  0  0  0  0  0  0  0  0  0  0  0
  129.2995  132.0200  157.1751 C   0  0  0  0  0  0  0  0  0  0  0  0
  129.2238  132.9938  158.1395 N   0  0  0  0  0  0  0  0  0  0  0  0
  128.9358  132.8716  159.0577 H   0  0  0  0  0  0  0  0  0  0  0  0
  129.6264  134.1631  157.5701 C   0  0  0  0  0  0  0  0  0  0  0  0
  129.6945  135.3897  158.2093 N   0  0  0  0  0  0  0  0  0  0  0  0
  128.8120  135.6837  159.2561 C   0  0  0  0  0  0  0  0  0  0  0  0
  129.2050  136.5415  160.2754 C   0  0  0  0  0  0  0  0  0  0  0  0
  128.3350  136.8309  161.3076 C   0  0  0  0  0  0  0  0  0  0  0  0
  127.0668  136.2647  161.3266 C   0  0  0  0  0  0  0  0  0  0  0  0
  126.1849  136.5583  162.3731 N   0  0  0  0  0  0  0  0  0  0  0  0
  126.5345  136.2471  163.6892 C   0  0  0  0  0  0  0  0  0  0  0  0
  126.0533  137.0200  164.7387 C   0  0  0  0  0  0  0  0  0  0  0  0
  126.4007  136.7093  166.0387 C   0  0  0  0  0  0  0  0  0  0  0  0
  127.2270  135.6308  166.2964 C   0  0  0  0  0  0  0  0  0  0  0  0
  127.6048  135.2955  167.7162 C   0  0  0  0  0  0  0  0  0  0  0  0
  126.5825  134.3175  168.2985 C   0  0  0  0  0  0  0  0  0  0  0  0
  127.7121  134.8627  165.2537 C   0  0  0  0  0  0  0  0  0  0  0  0
  127.3642  135.1641  163.9518 C   0  0  0  0  0  0  0  0  0  0  0  0
  126.6758  135.4029  160.3100 C   0  0  0  0  0  0  0  0  0  0  0  0
  127.5437  135.1180  159.2747 C   0  0  0  0  0  0  0  0  0  0  0  0
  129.9335  133.9384  156.3159 N   0  0  0  0  0  0  0  0  0  0  0  0
  130.2461  134.6055  155.6849 H   0  0  0  0  0  0  0  0  0  0  0  0
  131.4108  131.2161  152.5012 H   0  0  0  0  0  0  0  0  0  0  0  0
  129.7294  131.5537  152.0243 H   0  0  0  0  0  0  0  0  0  0  0  0
  131.0119  132.7327  151.6589 H   0  0  0  0  0  0  0  0  0  0  0  0
  130.6000  133.7288  153.8168 H   0  0  0  0  0  0  0  0  0  0  0  0
  129.8013  130.9028  154.6325 H   0  0  0  0  0  0  0  0  0  0  0  0
  129.0513  130.9757  157.2941 H   0  0  0  0  0  0  0  0  0  0  0  0
  130.3536  136.0452  157.9321 H   0  0  0  0  0  0  0  0  0  0  0  0
  130.1910  136.9816  160.2607 H   0  0  0  0  0  0  0  0  0  0  0  0
  128.6406  137.4978  162.1003 H   0  0  0  0  0  0  0  0  0  0  0  0
  125.3308  136.9776  162.1844 H   0  0  0  0  0  0  0  0  0  0  0  0
  125.4085  137.8628  164.5381 H   0  0  0  0  0  0  0  0  0  0  0  0
  126.0270  137.3096  166.8550 H   0  0  0  0  0  0  0  0  0  0  0  0
  128.5941  134.8383  167.7306 H   0  0  0  0  0  0  0  0  0  0  0  0
  127.6169  136.2070  168.3138 H   0  0  0  0  0  0  0  0  0  0  0  0
  125.5930  134.7746  168.2841 H   0  0  0  0  0  0  0  0  0  0  0  0
  126.5703  133.4060  167.7009 H   0  0  0  0  0  0  0  0  0  0  0  0
  126.8556  134.0749  169.3255 H   0  0  0  0  0  0  0  0  0  0  0  0
  128.3606  134.0235  165.4581 H   0  0  0  0  0  0  0  0  0  0  0  0
  127.7402  134.5614  163.1383 H   0  0  0  0  0  0  0  0  0  0  0  0
  125.6913  134.9592  160.3269 H   0  0  0  0  0  0  0  0  0  0  0  0
  127.2384  134.4509  158.4820 H   0  0  0  0  0  0  0  0  0  0  0  0
  1  2  1  0
  1 27  1  0
  1 28  1  0
  1 29  1  0
  2  3  2  0
  2 30  1  0
  3  4  1  0
  3 31  1  0
  4 25  1  0
  4  5  2  0
  5  6  1  0
  5 32  1  0
  6  7  1  0
  6  8  1  0
  8  9  1  0
  8 25  2  0
  9 10  1  0
  9 33  1  0
 10 24  1  0
 10 11  2  0
 11 12  1  0
 11 34  1  0
 12 13  2  0
 12 35  1  0
 13 14  1  0
 13 23  1  0
 14 15  1  0
 14 36  1  0
 15 22  1  0
 15 16  2  0
 16 17  1  0
 16 37  1  0
 17 18  2  0
 17 38  1  0
 18 19  1  0
 18 21  1  0
 19 20  1  0
 19 39  1  0
 19 40  1  0
 20 41  1  0
 20 42  1  0
 20 43  1  0
 21 22  2  0
 21 44  1  0
 22 45  1  0
 23 24  2  0
 23 46  1  0
 24 47  1  0
 25 26  1  0
M  CHG  1  25   1
M  END
>  <DOCK_score>  (1) 
-53.790611

>  <SMILES>  (1) 
CC=Cc1c[nH]c(Nc2ccc(Nc3ccc(CC)cc3)cc2)[nH+]1

$$$$
