Oc1ccc(Nc2[nH]cc(-c3ccc(Br)cc3)[nH+]2)cc1C1CCCCC1
     RDKit          3D

 49 52  0  0  1  0  0  0  0  0999 V2000
  126.4284  136.8259  162.6571 O   0  0  0  0  0  0  0  0  0  0  0  0
  127.3487  136.4130  161.7450 C   0  0  0  0  0  0  0  0  0  0  0  0
  126.9708  136.1975  160.4275 C   0  0  0  0  0  0  0  0  0  0  0  0
  127.9034  135.7728  159.5022 C   0  0  0  0  0  0  0  0  0  0  0  0
  129.2213  135.5667  159.8892 C   0  0  0  0  0  0  0  0  0  0  0  0
  130.1676  135.1365  158.9514 N   0  0  0  0  0  0  0  0  0  0  0  0
  129.9907  133.9314  158.2918 C   0  0  0  0  0  0  0  0  0  0  0  0
  129.3446  132.8419  158.7903 N   0  0  0  0  0  0  0  0  0  0  0  0
  128.9288  132.7703  159.6638 H   0  0  0  0  0  0  0  0  0  0  0  0
  129.3900  131.8628  157.8283 C   0  0  0  0  0  0  0  0  0  0  0  0
  130.0620  132.3813  156.7704 C   0  0  0  0  0  0  0  0  0  0  0  0
  130.3553  131.6825  155.4952 C   0  0  0  0  0  0  0  0  0  0  0  0
  129.8724  132.1923  154.2913 C   0  0  0  0  0  0  0  0  0  0  0  0
  130.1520  131.5411  153.1073 C   0  0  0  0  0  0  0  0  0  0  0  0
  130.9014  130.3780  153.1148 C   0  0  0  0  0  0  0  0  0  0  0  0
  131.2742  129.4859  151.4896 Br  0  0  0  0  0  0  0  0  0  0  0  0
  131.3794  129.8642  154.3085 C   0  0  0  0  0  0  0  0  0  0  0  0
  131.1098  130.5106  155.4975 C   0  0  0  0  0  0  0  0  0  0  0  0
  130.4129  133.6537  157.0823 N   0  0  0  0  0  0  0  0  0  0  0  0
  130.9003  134.2607  156.5035 H   0  0  0  0  0  0  0  0  0  0  0  0
  129.5999  135.7880  161.2066 C   0  0  0  0  0  0  0  0  0  0  0  0
  128.6657  136.2129  162.1310 C   0  0  0  0  0  0  0  0  0  0  0  0
  129.0763  136.4532  163.5610 C   0  0  0  0  0  0  0  0  0  0  0  0
  128.7993  137.9112  163.9331 C   0  0  0  0  0  0  0  0  0  0  0  0
  129.2162  138.1549  165.3848 C   0  0  0  0  0  0  0  0  0  0  0  0
  128.4164  137.2325  166.3069 C   0  0  0  0  0  0  0  0  0  0  0  0
  128.6932  135.7745  165.9348 C   0  0  0  0  0  0  0  0  0  0  0  0
  128.2765  135.5307  164.4831 C   0  0  0  0  0  0  0  0  0  0  0  0
  125.5387  136.9377  162.2950 H   0  0  0  0  0  0  0  0  0  0  0  0
  125.9461  136.3578  160.1267 H   0  0  0  0  0  0  0  0  0  0  0  0
  127.6080  135.6005  158.4778 H   0  0  0  0  0  0  0  0  0  0  0  0
  130.9472  135.6822  158.7635 H   0  0  0  0  0  0  0  0  0  0  0  0
  128.9706  130.8702  157.9002 H   0  0  0  0  0  0  0  0  0  0  0  0
  129.2837  133.0978  154.2846 H   0  0  0  0  0  0  0  0  0  0  0  0
  129.7816  131.9374  152.1734 H   0  0  0  0  0  0  0  0  0  0  0  0
  131.9639  128.9560  154.3091 H   0  0  0  0  0  0  0  0  0  0  0  0
  131.4831  130.1094  156.4281 H   0  0  0  0  0  0  0  0  0  0  0  0
  130.6245  135.6284  161.5083 H   0  0  0  0  0  0  0  0  0  0  0  0
  130.1404  136.2453  163.6732 H   0  0  0  0  0  0  0  0  0  0  0  0
  127.7353  138.1190  163.8207 H   0  0  0  0  0  0  0  0  0  0  0  0
  129.3693  138.5683  163.2762 H   0  0  0  0  0  0  0  0  0  0  0  0
  130.2804  137.9472  165.4972 H   0  0  0  0  0  0  0  0  0  0  0  0
  129.0190  139.1936  165.6500 H   0  0  0  0  0  0  0  0  0  0  0  0
  128.7133  137.4062  167.3412 H   0  0  0  0  0  0  0  0  0  0  0  0
  127.3523  137.4403  166.1947 H   0  0  0  0  0  0  0  0  0  0  0  0
  129.7574  135.5667  166.0471 H   0  0  0  0  0  0  0  0  0  0  0  0
  128.1234  135.1174  166.5917 H   0  0  0  0  0  0  0  0  0  0  0  0
  128.4737  134.4920  164.2180 H   0  0  0  0  0  0  0  0  0  0  0  0
  127.2124  135.7385  164.3707 H   0  0  0  0  0  0  0  0  0  0  0  0
  1  2  1  0
  1 29  1  0
  2 22  2  0
  2  3  1  0
  3  4  2  0
  3 30  1  0
  4  5  1  0
  4 31  1  0
  5  6  1  0
  5 21  2  0
  6 32  1  0
  7  6  1  0
  7 19  2  0
  7  8  1  0
  8  9  1  0
  8 10  1  0
 10 11  2  0
 10 33  1  0
 11 12  1  0
 11 19  1  0
 12 18  1  0
 12 13  2  0
 13 14  1  0
 13 34  1  0
 14 15  2  0
 14 35  1  0
 15 16  1  0
 15 17  1  0
 17 18  2  0
 17 36  1  0
 18 37  1  0
 19 20  1  0
 21 22  1  0
 21 38  1  0
 22 23  1  0
 23 28  1  0
 23 24  1  0
 23 39  1  0
 24 25  1  0
 24 40  1  0
 24 41  1  0
 25 26  1  0
 25 42  1  0
 25 43  1  0
 26 27  1  0
 26 44  1  0
 26 45  1  0
 27 28  1  0
 27 46  1  0
 27 47  1  0
 28 48  1  0
 28 49  1  0
M  CHG  1  19   1
M  END
>  <DOCK_score>  (1) 
-52.830868

>  <SMILES>  (1) 
Oc1ccc(Nc2[nH]cc(-c3ccc(Br)cc3)[nH+]2)cc1C1CCCCC1

$$$$
