Nc1ccc(-c2c[nH]c(NC3c4ccccc4-c4ccccc43)[nH+]2)cc1
     RDKit          3D

 45 49  0  0  1  0  0  0  0  0999 V2000
  131.3548  130.0270  151.6737 N   0  0  0  0  0  0  0  0  0  0  0  0
  131.1287  130.6116  152.9222 C   0  0  0  0  0  0  0  0  0  0  0  0
  130.7726  131.9523  153.0063 C   0  0  0  0  0  0  0  0  0  0  0  0
  130.5489  132.5315  154.2376 C   0  0  0  0  0  0  0  0  0  0  0  0
  130.6801  131.7710  155.3985 C   0  0  0  0  0  0  0  0  0  0  0  0
  130.4404  132.3918  156.7244 C   0  0  0  0  0  0  0  0  0  0  0  0
  129.9740  131.7589  157.8291 C   0  0  0  0  0  0  0  0  0  0  0  0
  129.9089  132.6996  158.8297 N   0  0  0  0  0  0  0  0  0  0  0  0
  129.6153  132.5487  159.7419 H   0  0  0  0  0  0  0  0  0  0  0  0
  130.3291  133.8817  158.3031 C   0  0  0  0  0  0  0  0  0  0  0  0
  130.4108  135.0842  158.9842 N   0  0  0  0  0  0  0  0  0  0  0  0
  129.4871  135.3663  160.0858 C   0  0  0  0  0  0  0  0  0  0  0  0
  129.9074  134.6107  161.3227 C   0  0  0  0  0  0  0  0  0  0  0  0
  131.0567  134.6412  162.0819 C   0  0  0  0  0  0  0  0  0  0  0  0
  131.1776  133.8223  163.1903 C   0  0  0  0  0  0  0  0  0  0  0  0
  130.1457  132.9693  163.5385 C   0  0  0  0  0  0  0  0  0  0  0  0
  128.9916  132.9306  162.7844 C   0  0  0  0  0  0  0  0  0  0  0  0
  128.8623  133.7547  161.6647 C   0  0  0  0  0  0  0  0  0  0  0  0
  127.7527  133.9159  160.6928 C   0  0  0  0  0  0  0  0  0  0  0  0
  126.5066  133.2916  160.6079 C   0  0  0  0  0  0  0  0  0  0  0  0
  125.6377  133.6238  159.5897 C   0  0  0  0  0  0  0  0  0  0  0  0
  125.9953  134.5747  158.6505 C   0  0  0  0  0  0  0  0  0  0  0  0
  127.2281  135.1976  158.7287 C   0  0  0  0  0  0  0  0  0  0  0  0
  128.1033  134.8714  159.7431 C   0  0  0  0  0  0  0  0  0  0  0  0
  130.6491  133.6930  157.0460 N   0  0  0  0  0  0  0  0  0  0  0  0
  130.9817  134.3753  156.4419 H   0  0  0  0  0  0  0  0  0  0  0  0
  131.0425  130.4276  155.3119 C   0  0  0  0  0  0  0  0  0  0  0  0
  131.2596  129.8513  154.0783 C   0  0  0  0  0  0  0  0  0  0  0  0
  131.2633  130.5570  150.8664 H   0  0  0  0  0  0  0  0  0  0  0  0
  131.6034  129.0913  151.6142 H   0  0  0  0  0  0  0  0  0  0  0  0
  130.6714  132.5413  152.1067 H   0  0  0  0  0  0  0  0  0  0  0  0
  130.2719  133.5734  154.3024 H   0  0  0  0  0  0  0  0  0  0  0  0
  129.7089  130.7151  157.9089 H   0  0  0  0  0  0  0  0  0  0  0  0
  131.0770  135.7416  158.7295 H   0  0  0  0  0  0  0  0  0  0  0  0
  129.4630  136.4367  160.2901 H   0  0  0  0  0  0  0  0  0  0  0  0
  131.8635  135.3064  161.8117 H   0  0  0  0  0  0  0  0  0  0  0  0
  132.0792  133.8489  163.7846 H   0  0  0  0  0  0  0  0  0  0  0  0
  130.2441  132.3313  164.4043 H   0  0  0  0  0  0  0  0  0  0  0  0
  128.1881  132.2638  163.0600 H   0  0  0  0  0  0  0  0  0  0  0  0
  126.2235  132.5490  161.3391 H   0  0  0  0  0  0  0  0  0  0  0  0
  124.6743  133.1400  159.5254 H   0  0  0  0  0  0  0  0  0  0  0  0
  125.3111  134.8308  157.8550 H   0  0  0  0  0  0  0  0  0  0  0  0
  127.5052  135.9397  157.9946 H   0  0  0  0  0  0  0  0  0  0  0  0
  131.1491  129.8378  156.2104 H   0  0  0  0  0  0  0  0  0  0  0  0
  131.5360  128.8094  154.0105 H   0  0  0  0  0  0  0  0  0  0  0  0
  1  2  1  0
  1 29  1  0
  1 30  1  0
  2 28  2  0
  2  3  1  0
  3  4  2  0
  3 31  1  0
  4  5  1  0
  4 32  1  0
  5  6  1  0
  5 27  2  0
  6 25  1  0
  6  7  2  0
  7  8  1  0
  7 33  1  0
  8  9  1  0
  8 10  1  0
 10 11  1  0
 10 25  2  0
 11 12  1  0
 11 34  1  0
 12 24  1  0
 12 13  1  0
 12 35  1  0
 13 18  1  0
 13 14  2  0
 14 15  1  0
 14 36  1  0
 15 16  2  0
 15 37  1  0
 16 17  1  0
 16 38  1  0
 17 18  2  0
 17 39  1  0
 18 19  1  0
 19 24  2  0
 19 20  1  0
 20 21  2  0
 20 40  1  0
 21 22  1  0
 21 41  1  0
 22 23  2  0
 22 42  1  0
 23 24  1  0
 23 43  1  0
 25 26  1  0
 27 28  1  0
 27 44  1  0
 28 45  1  0
M  CHG  1  25   1
M  END
>  <DOCK_score>  (1) 
-57.000015

>  <SMILES>  (1) 
Nc1ccc(-c2c[nH]c(NC3c4ccccc4-c4ccccc43)[nH+]2)cc1

$$$$
