O=C1CC[C@H](NC(NC2CCCC2)=[NH+][C@H]2Cc3ccc(-c4ccc(F)cc4)cc3C2)CN1
     RDKit          3D

 64 68  0  0  1  0  0  0  0  0999 V2000
  124.0778  133.6555  161.3159 O   0  0  0  0  0  0  0  0  0  0  0  0
  125.2162  134.0004  161.0792 C   0  0  0  0  0  0  0  0  0  0  0  0
  126.2032  132.9511  160.6550 C   0  0  0  0  0  0  0  0  0  0  0  0
  127.6306  133.4762  160.8239 C   0  0  0  0  0  0  0  0  0  0  0  0
  127.7144  134.8678  160.1852 C   0  0  2  0  0  0  0  0  0  0  0  0
  127.3403  134.8238  159.1624 H   0  0  0  0  0  0  0  0  0  0  0  0
  129.1066  135.3235  160.1803 N   0  0  0  0  0  0  0  0  0  0  0  0
  130.0654  134.5965  159.5151 C   0  0  0  0  0  0  0  0  0  0  0  0
  129.7236  133.8627  158.4039 N   0  0  0  0  0  0  0  0  0  0  0  0
  130.7451  133.0880  157.6949 C   0  0  0  0  0  0  0  0  0  0  0  0
  130.1013  132.3027  156.5336 C   0  0  0  0  0  0  0  0  0  0  0  0
  130.8678  130.9560  156.5156 C   0  0  0  0  0  0  0  0  0  0  0  0
  131.0790  130.6620  158.0217 C   0  0  0  0  0  0  0  0  0  0  0  0
  131.3669  132.0455  158.6405 C   0  0  0  0  0  0  0  0  0  0  0  0
  131.2983  134.6031  159.9378 N   0  0  0  0  0  0  0  0  0  0  0  0
  131.9747  134.0903  159.4684 H   0  0  0  0  0  0  0  0  0  0  0  0
  131.6625  135.3852  161.1219 C   0  0  1  0  0  0  0  0  0  0  0  0
  130.8229  135.4572  161.8132 H   0  0  0  0  0  0  0  0  0  0  0  0
  132.8981  134.7795  161.8206 C   0  0  0  0  0  0  0  0  0  0  0  0
  133.6755  135.9662  162.3502 C   0  0  0  0  0  0  0  0  0  0  0  0
  134.6738  136.0264  163.3100 C   0  0  0  0  0  0  0  0  0  0  0  0
  135.2514  137.2340  163.6403 C   0  0  0  0  0  0  0  0  0  0  0  0
  134.8317  138.4000  163.0030 C   0  0  0  0  0  0  0  0  0  0  0  0
  135.4516  139.7030  163.3486 C   0  0  0  0  0  0  0  0  0  0  0  0
  135.5474  140.7080  162.3882 C   0  0  0  0  0  0  0  0  0  0  0  0
  136.1190  141.9204  162.7157 C   0  0  0  0  0  0  0  0  0  0  0  0
  136.6081  142.1351  163.9941 C   0  0  0  0  0  0  0  0  0  0  0  0
  137.1724  143.3215  164.3088 F   0  0  0  0  0  0  0  0  0  0  0  0
  136.5204  141.1366  164.9505 C   0  0  0  0  0  0  0  0  0  0  0  0
  135.9448  139.9234  164.6333 C   0  0  0  0  0  0  0  0  0  0  0  0
  133.8261  138.3368  162.0425 C   0  0  0  0  0  0  0  0  0  0  0  0
  133.2529  137.1211  161.7170 C   0  0  0  0  0  0  0  0  0  0  0  0
  132.1636  136.7884  160.7196 C   0  0  0  0  0  0  0  0  0  0  0  0
  126.8599  135.8376  161.0026 C   0  0  0  0  0  0  0  0  0  0  0  0
  125.5245  135.2914  161.2093 N   0  0  0  0  0  0  0  0  0  0  0  0
  126.0696  132.0596  161.2678 H   0  0  0  0  0  0  0  0  0  0  0  0
  126.0359  132.6990  159.6078 H   0  0  0  0  0  0  0  0  0  0  0  0
  128.3320  132.8033  160.3307 H   0  0  0  0  0  0  0  0  0  0  0  0
  127.8710  133.5443  161.8849 H   0  0  0  0  0  0  0  0  0  0  0  0
  129.3520  136.1379  160.6464 H   0  0  0  0  0  0  0  0  0  0  0  0
  128.8060  133.8576  158.0894 H   0  0  0  0  0  0  0  0  0  0  0  0
  131.5189  133.7533  157.3120 H   0  0  0  0  0  0  0  0  0  0  0  0
  129.0417  132.1357  156.7271 H   0  0  0  0  0  0  0  0  0  0  0  0
  130.2390  132.8334  155.5917 H   0  0  0  0  0  0  0  0  0  0  0  0
  131.8249  131.0640  156.0052 H   0  0  0  0  0  0  0  0  0  0  0  0
  130.2693  130.1735  156.0495 H   0  0  0  0  0  0  0  0  0  0  0  0
  131.9297  129.9956  158.1646 H   0  0  0  0  0  0  0  0  0  0  0  0
  130.1789  130.2289  158.4577 H   0  0  0  0  0  0  0  0  0  0  0  0
  132.4425  132.2043  158.7158 H   0  0  0  0  0  0  0  0  0  0  0  0
  130.9093  132.1165  159.6272 H   0  0  0  0  0  0  0  0  0  0  0  0
  132.5892  134.1329  162.6418 H   0  0  0  0  0  0  0  0  0  0  0  0
  133.5015  134.2212  161.1049 H   0  0  0  0  0  0  0  0  0  0  0  0
  135.0007  135.1224  163.8022 H   0  0  0  0  0  0  0  0  0  0  0  0
  136.0284  137.2757  164.3893 H   0  0  0  0  0  0  0  0  0  0  0  0
  135.1704  140.5399  161.3902 H   0  0  0  0  0  0  0  0  0  0  0  0
  136.1893  142.7015  161.9732 H   0  0  0  0  0  0  0  0  0  0  0  0
  136.9029  141.3081  165.9458 H   0  0  0  0  0  0  0  0  0  0  0  0
  135.8763  139.1457  165.3796 H   0  0  0  0  0  0  0  0  0  0  0  0
  133.4961  139.2381  161.5476 H   0  0  0  0  0  0  0  0  0  0  0  0
  131.3530  137.5138  160.7889 H   0  0  0  0  0  0  0  0  0  0  0  0
  132.5698  136.7694  159.7083 H   0  0  0  0  0  0  0  0  0  0  0  0
  127.3333  136.0076  161.9696 H   0  0  0  0  0  0  0  0  0  0  0  0
  126.7799  136.7847  160.4692 H   0  0  0  0  0  0  0  0  0  0  0  0
  124.8156  135.9054  161.4566 H   0  0  0  0  0  0  0  0  0  0  0  0
  1  2  2  0
  2 35  1  0
  2  3  1  0
  3  4  1  0
  3 36  1  0
  3 37  1  0
  4  5  1  0
  4 38  1  0
  4 39  1  0
  5  6  1  6
  5  7  1  0
  5 34  1  0
  7 40  1  0
  8  7  1  0
  8  9  1  0
  8 15  2  0
  9 10  1  0
  9 41  1  0
 10 14  1  0
 10 11  1  0
 10 42  1  0
 11 12  1  0
 11 43  1  0
 11 44  1  0
 12 13  1  0
 12 45  1  0
 12 46  1  0
 13 14  1  0
 13 47  1  0
 13 48  1  0
 14 49  1  0
 14 50  1  0
 15 16  1  0
 15 17  1  0
 17 18  1  1
 17 33  1  0
 17 19  1  0
 19 20  1  0
 19 51  1  0
 19 52  1  0
 20 32  2  0
 20 21  1  0
 21 22  2  0
 21 53  1  0
 22 23  1  0
 22 54  1  0
 23 24  1  0
 23 31  2  0
 24 30  1  0
 24 25  2  0
 25 26  1  0
 25 55  1  0
 26 27  2  0
 26 56  1  0
 27 28  1  0
 27 29  1  0
 29 30  2  0
 29 57  1  0
 30 58  1  0
 31 32  1  0
 31 59  1  0
 32 33  1  0
 33 60  1  0
 33 61  1  0
 34 35  1  0
 34 62  1  0
 34 63  1  0
 35 64  1  0
M  CHG  1  15   1
M  END
>  <DOCK_score>  (1) 
-47.995766

>  <SMILES>  (1) 
O=C1CC[C@H](NC(NC2CCCC2)=[NH+][C@H]2Cc3ccc(-c4ccc(F)cc4)cc3C2)CN1

$$$$
