CCc1ccc(-c2c[nH]c(N[C@@H](CNc3cnc4ccccc4n3)c3ccnn3C)[nH+]2)cc1
     RDKit          3D

 60 64  0  0  1  0  0  0  0  0999 V2000
  130.6004  128.4634  151.8857 C   0  0  0  0  0  0  0  0  0  0  0  0
  131.5719  129.6114  152.1663 C   0  0  0  0  0  0  0  0  0  0  0  0
  131.1518  130.3293  153.4230 C   0  0  0  0  0  0  0  0  0  0  0  0
  131.6450  129.9195  154.6481 C   0  0  0  0  0  0  0  0  0  0  0  0
  131.2676  130.5762  155.8017 C   0  0  0  0  0  0  0  0  0  0  0  0
  130.3791  131.6478  155.7316 C   0  0  0  0  0  0  0  0  0  0  0  0
  129.9657  132.3543  156.9685 C   0  0  0  0  0  0  0  0  0  0  0  0
  129.3337  131.7984  158.0318 C   0  0  0  0  0  0  0  0  0  0  0  0
  129.1415  132.8015  158.9504 N   0  0  0  0  0  0  0  0  0  0  0  0
  128.7134  132.7132  159.8163 H   0  0  0  0  0  0  0  0  0  0  0  0
  129.6622  133.9422  158.4212 C   0  0  0  0  0  0  0  0  0  0  0  0
  129.6706  135.1841  159.0326 N   0  0  0  0  0  0  0  0  0  0  0  0
  129.0833  135.3488  160.3646 C   0  0  1  0  0  0  0  0  0  0  0  0
  129.3343  134.4859  160.9816 H   0  0  0  0  0  0  0  0  0  0  0  0
  129.6385  136.6185  161.0134 C   0  0  0  0  0  0  0  0  0  0  0  0
  129.7356  137.6786  160.0070 N   0  0  0  0  0  0  0  0  0  0  0  0
  130.9660  138.2492  159.7176 C   0  0  0  0  0  0  0  0  0  0  0  0
  131.0543  139.2627  158.7464 C   0  0  0  0  0  0  0  0  0  0  0  0
  132.2078  139.8177  158.4640 N   0  0  0  0  0  0  0  0  0  0  0  0
  133.3162  139.4104  159.0959 C   0  0  0  0  0  0  0  0  0  0  0  0
  134.5655  139.9853  158.8074 C   0  0  0  0  0  0  0  0  0  0  0  0
  135.6763  139.5517  159.4641 C   0  0  0  0  0  0  0  0  0  0  0  0
  135.5942  138.5435  160.4223 C   0  0  0  0  0  0  0  0  0  0  0  0
  134.4008  137.9645  160.7283 C   0  0  0  0  0  0  0  0  0  0  0  0
  133.2327  138.3860  160.0706 C   0  0  0  0  0  0  0  0  0  0  0  0
  132.0457  137.8335  160.3515 N   0  0  0  0  0  0  0  0  0  0  0  0
  127.5854  135.4606  160.2429 C   0  0  0  0  0  0  0  0  0  0  0  0
  126.8731  135.4182  159.0933 C   0  0  0  0  0  0  0  0  0  0  0  0
  125.5200  135.5567  159.4199 C   0  0  0  0  0  0  0  0  0  0  0  0
  125.4237  135.6779  160.7190 N   0  0  0  0  0  0  0  0  0  0  0  0
  126.7137  135.6151  161.2614 N   0  0  0  0  0  0  0  0  0  0  0  0
  127.0564  135.7049  162.6830 C   0  0  0  0  0  0  0  0  0  0  0  0
  130.1583  133.6698  157.2389 N   0  0  0  0  0  0  0  0  0  0  0  0
  130.5921  134.3074  156.6506 H   0  0  0  0  0  0  0  0  0  0  0  0
  129.8811  132.0534  154.4947 C   0  0  0  0  0  0  0  0  0  0  0  0
  130.2696  131.3927  153.3470 C   0  0  0  0  0  0  0  0  0  0  0  0
  130.9044  127.9442  150.9768 H   0  0  0  0  0  0  0  0  0  0  0  0
  130.6113  127.7659  152.7234 H   0  0  0  0  0  0  0  0  0  0  0  0
  129.5941  128.8617  151.7575 H   0  0  0  0  0  0  0  0  0  0  0  0
  132.5782  129.2136  152.2942 H   0  0  0  0  0  0  0  0  0  0  0  0
  131.5609  130.3094  151.3283 H   0  0  0  0  0  0  0  0  0  0  0  0
  132.3300  129.0861  154.7018 H   0  0  0  0  0  0  0  0  0  0  0  0
  131.6570  130.2579  156.7576 H   0  0  0  0  0  0  0  0  0  0  0  0
  129.0378  130.7650  158.1362 H   0  0  0  0  0  0  0  0  0  0  0  0
  130.0652  135.9453  158.5791 H   0  0  0  0  0  0  0  0  0  0  0  0
  128.9724  136.9380  161.8147 H   0  0  0  0  0  0  0  0  0  0  0  0
  130.6279  136.4144  161.4228 H   0  0  0  0  0  0  0  0  0  0  0  0
  128.9394  137.9814  159.5432 H   0  0  0  0  0  0  0  0  0  0  0  0
  130.1629  139.5900  158.2321 H   0  0  0  0  0  0  0  0  0  0  0  0
  134.6443  140.7676  158.0670 H   0  0  0  0  0  0  0  0  0  0  0  0
  136.6347  139.9956  159.2393 H   0  0  0  0  0  0  0  0  0  0  0  0
  136.4898  138.2171  160.9299 H   0  0  0  0  0  0  0  0  0  0  0  0
  134.3518  137.1846  161.4738 H   0  0  0  0  0  0  0  0  0  0  0  0
  127.2777  135.2990  158.0991 H   0  0  0  0  0  0  0  0  0  0  0  0
  124.6972  135.5630  158.7205 H   0  0  0  0  0  0  0  0  0  0  0  0
  127.2239  136.7479  162.9512 H   0  0  0  0  0  0  0  0  0  0  0  0
  126.2377  135.3030  163.2800 H   0  0  0  0  0  0  0  0  0  0  0  0
  127.9624  135.1302  162.8753 H   0  0  0  0  0  0  0  0  0  0  0  0
  129.1922  132.8829  154.4344 H   0  0  0  0  0  0  0  0  0  0  0  0
  129.8840  131.7058  152.3880 H   0  0  0  0  0  0  0  0  0  0  0  0
  1  2  1  0
  1 37  1  0
  1 38  1  0
  1 39  1  0
  2  3  1  0
  2 40  1  0
  2 41  1  0
  3 36  2  0
  3  4  1  0
  4  5  2  0
  4 42  1  0
  5  6  1  0
  5 43  1  0
  6  7  1  0
  6 35  2  0
  7 33  1  0
  7  8  2  0
  8  9  1  0
  8 44  1  0
  9 10  1  0
  9 11  1  0
 11 12  1  0
 11 33  2  0
 12 13  1  0
 12 45  1  0
 13 14  1  1
 13 15  1  0
 13 27  1  0
 15 16  1  0
 15 46  1  0
 15 47  1  0
 16 17  1  0
 16 48  1  0
 17 26  1  0
 17 18  2  0
 18 19  1  0
 18 49  1  0
 19 20  2  0
 20 25  1  0
 20 21  1  0
 21 22  2  0
 21 50  1  0
 22 23  1  0
 22 51  1  0
 23 24  2  0
 23 52  1  0
 24 25  1  0
 24 53  1  0
 25 26  2  0
 27 31  1  0
 27 28  2  0
 28 29  1  0
 28 54  1  0
 29 30  2  0
 29 55  1  0
 30 31  1  0
 31 32  1  0
 32 56  1  0
 32 57  1  0
 32 58  1  0
 33 34  1  0
 35 36  1  0
 35 59  1  0
 36 60  1  0
M  CHG  1  33   1
M  END
>  <DOCK_score>  (1) 
-57.598171

>  <SMILES>  (1) 
CCc1ccc(-c2c[nH]c(N[C@@H](CNc3cnc4ccccc4n3)c3ccnn3C)[nH+]2)cc1

$$$$
