CCc1ccc(-c2c[nH]c(N[C@@H](Cc3cnnn3C)c3ccc(C#N)cc3)[nH+]2)cc1
     RDKit          3D

 54 57  0  0  1  0  0  0  0  0999 V2000
  130.0772  128.5639  151.3693 C   0  0  0  0  0  0  0  0  0  0  0  0
  131.2443  129.4930  151.7090 C   0  0  0  0  0  0  0  0  0  0  0  0
  130.9266  130.2604  152.9664 C   0  0  0  0  0  0  0  0  0  0  0  0
  131.2819  129.7411  154.1986 C   0  0  0  0  0  0  0  0  0  0  0  0
  130.9927  130.4389  155.3536 C   0  0  0  0  0  0  0  0  0  0  0  0
  130.3416  131.6688  155.2770 C   0  0  0  0  0  0  0  0  0  0  0  0
  130.0281  132.4236  156.5149 C   0  0  0  0  0  0  0  0  0  0  0  0
  129.2452  131.9935  157.5352 C   0  0  0  0  0  0  0  0  0  0  0  0
  129.2239  132.9979  158.4721 N   0  0  0  0  0  0  0  0  0  0  0  0
  128.7475  132.9854  159.3169 H   0  0  0  0  0  0  0  0  0  0  0  0
  129.9951  134.0133  157.9965 C   0  0  0  0  0  0  0  0  0  0  0  0
  130.2337  135.2148  158.6414 N   0  0  0  0  0  0  0  0  0  0  0  0
  130.2379  135.2722  160.1054 C   0  0  1  0  0  0  0  0  0  0  0  0
  129.4359  134.6458  160.4958 H   0  0  0  0  0  0  0  0  0  0  0  0
  131.5824  134.7664  160.6318 C   0  0  0  0  0  0  0  0  0  0  0  0
  131.5895  133.2593  160.6256 C   0  0  0  0  0  0  0  0  0  0  0  0
  131.9922  132.4525  159.6162 C   0  0  0  0  0  0  0  0  0  0  0  0
  131.8211  131.1962  160.0428 N   0  0  0  0  0  0  0  0  0  0  0  0
  131.3485  131.2234  161.2389 N   0  0  0  0  0  0  0  0  0  0  0  0
  131.1969  132.4407  161.6288 N   0  0  0  0  0  0  0  0  0  0  0  0
  130.6817  132.8665  162.9326 C   0  0  0  0  0  0  0  0  0  0  0  0
  130.0265  136.6956  160.5529 C   0  0  0  0  0  0  0  0  0  0  0  0
  130.9260  137.6768  160.1754 C   0  0  0  0  0  0  0  0  0  0  0  0
  130.7360  138.9827  160.5775 C   0  0  0  0  0  0  0  0  0  0  0  0
  129.6386  139.3112  161.3761 C   0  0  0  0  0  0  0  0  0  0  0  0
  129.4379  140.6638  161.8014 C   0  0  0  0  0  0  0  0  0  0  0  0
  129.2786  141.7367  162.1387 N   0  0  0  0  0  0  0  0  0  0  0  0
  128.7378  138.3150  161.7577 C   0  0  0  0  0  0  0  0  0  0  0  0
  128.9370  137.0142  161.3441 C   0  0  0  0  0  0  0  0  0  0  0  0
  130.4700  133.6685  156.8245 N   0  0  0  0  0  0  0  0  0  0  0  0
  131.0467  134.2151  156.2683 H   0  0  0  0  0  0  0  0  0  0  0  0
  129.9810  132.1843  154.0333 C   0  0  0  0  0  0  0  0  0  0  0  0
  130.2804  131.4804  152.8845 C   0  0  0  0  0  0  0  0  0  0  0  0
  130.3073  128.0091  150.4596 H   0  0  0  0  0  0  0  0  0  0  0  0
  129.9181  127.8651  152.1906 H   0  0  0  0  0  0  0  0  0  0  0  0
  129.1747  129.1555  151.2156 H   0  0  0  0  0  0  0  0  0  0  0  0
  131.4035  130.1917  150.8877 H   0  0  0  0  0  0  0  0  0  0  0  0
  132.1469  128.9014  151.8627 H   0  0  0  0  0  0  0  0  0  0  0  0
  131.7862  128.7879  154.2568 H   0  0  0  0  0  0  0  0  0  0  0  0
  131.2706  130.0329  156.3150 H   0  0  0  0  0  0  0  0  0  0  0  0
  128.7356  131.0435  157.5987 H   0  0  0  0  0  0  0  0  0  0  0  0
  130.3983  136.0187  158.1241 H   0  0  0  0  0  0  0  0  0  0  0  0
  131.7326  135.1262  161.6497 H   0  0  0  0  0  0  0  0  0  0  0  0
  132.3848  135.1361  159.9936 H   0  0  0  0  0  0  0  0  0  0  0  0
  132.3729  132.7620  158.6541 H   0  0  0  0  0  0  0  0  0  0  0  0
  131.5096  132.9705  163.6340 H   0  0  0  0  0  0  0  0  0  0  0  0
  130.1728  133.8246  162.8268 H   0  0  0  0  0  0  0  0  0  0  0  0
  129.9797  132.1214  163.3069 H   0  0  0  0  0  0  0  0  0  0  0  0
  131.7766  137.4206  159.5612 H   0  0  0  0  0  0  0  0  0  0  0  0
  131.4364  139.7485  160.2786 H   0  0  0  0  0  0  0  0  0  0  0  0
  127.8872  138.5622  162.3755 H   0  0  0  0  0  0  0  0  0  0  0  0
  128.2408  136.2427  161.6381 H   0  0  0  0  0  0  0  0  0  0  0  0
  129.4721  133.1347  153.9683 H   0  0  0  0  0  0  0  0  0  0  0  0
  130.0055  131.8810  151.9199 H   0  0  0  0  0  0  0  0  0  0  0  0
  1  2  1  0
  1 34  1  0
  1 35  1  0
  1 36  1  0
  2  3  1  0
  2 37  1  0
  2 38  1  0
  3 33  2  0
  3  4  1  0
  4  5  2  0
  4 39  1  0
  5  6  1  0
  5 40  1  0
  6  7  1  0
  6 32  2  0
  7 30  1  0
  7  8  2  0
  8  9  1  0
  8 41  1  0
  9 10  1  0
  9 11  1  0
 11 12  1  0
 11 30  2  0
 12 13  1  0
 12 42  1  0
 13 14  1  1
 13 15  1  0
 13 22  1  0
 15 16  1  0
 15 43  1  0
 15 44  1  0
 16 20  1  0
 16 17  2  0
 17 18  1  0
 17 45  1  0
 18 19  2  0
 19 20  1  0
 20 21  1  0
 21 46  1  0
 21 47  1  0
 21 48  1  0
 22 29  1  0
 22 23  2  0
 23 24  1  0
 23 49  1  0
 24 25  2  0
 24 50  1  0
 25 26  1  0
 25 28  1  0
 26 27  3  0
 28 29  2  0
 28 51  1  0
 29 52  1  0
 30 31  1  0
 32 33  1  0
 32 53  1  0
 33 54  1  0
M  CHG  1  30   1
M  END
>  <DOCK_score>  (1) 
-60.915424

>  <SMILES>  (1) 
CCc1ccc(-c2c[nH]c(N[C@@H](Cc3cnnn3C)c3ccc(C#N)cc3)[nH+]2)cc1

$$$$
