c1ccc(CC(CNc2[nH]cc(-c3ccc(-c4cccnc4)cc3)[nH+]2)Cc2ccccc2)cc1
     RDKit          3D

 63 67  0  0  1  0  0  0  0  0999 V2000
  136.6622  139.6782  161.4246 C   0  0  0  0  0  0  0  0  0  0  0  0
  136.0259  139.2861  160.2617 C   0  0  0  0  0  0  0  0  0  0  0  0
  135.0898  138.2694  160.2950 C   0  0  0  0  0  0  0  0  0  0  0  0
  134.7888  137.6461  161.4915 C   0  0  0  0  0  0  0  0  0  0  0  0
  133.7679  136.5382  161.5280 C   0  0  0  0  0  0  0  0  0  0  0  0
  132.3806  137.1311  161.7822 C   0  0  0  0  0  0  0  0  0  0  0  0
  131.3100  136.1335  161.3358 C   0  0  0  0  0  0  0  0  0  0  0  0
  131.4675  135.8551  159.9061 N   0  0  0  0  0  0  0  0  0  0  0  0
  131.1012  134.6212  159.3967 C   0  0  0  0  0  0  0  0  0  0  0  0
  130.5906  133.5859  160.1178 N   0  0  0  0  0  0  0  0  0  0  0  0
  130.4193  133.5801  161.0726 H   0  0  0  0  0  0  0  0  0  0  0  0
  130.3603  132.5517  159.2438 C   0  0  0  0  0  0  0  0  0  0  0  0
  130.7441  132.9815  158.0155 C   0  0  0  0  0  0  0  0  0  0  0  0
  130.6825  132.1982  156.7585 C   0  0  0  0  0  0  0  0  0  0  0  0
  130.4873  132.8488  155.5401 C   0  0  0  0  0  0  0  0  0  0  0  0
  130.4348  132.1214  154.3717 C   0  0  0  0  0  0  0  0  0  0  0  0
  130.5671  130.7339  154.4076 C   0  0  0  0  0  0  0  0  0  0  0  0
  130.5047  129.9498  153.1502 C   0  0  0  0  0  0  0  0  0  0  0  0
  129.7442  130.4025  152.0679 C   0  0  0  0  0  0  0  0  0  0  0  0
  129.7190  129.6347  150.9167 C   0  0  0  0  0  0  0  0  0  0  0  0
  130.4401  128.4550  150.8741 C   0  0  0  0  0  0  0  0  0  0  0  0
  131.1487  128.0533  151.9114 N   0  0  0  0  0  0  0  0  0  0  0  0
  131.2079  128.7532  153.0260 C   0  0  0  0  0  0  0  0  0  0  0  0
  130.7566  130.0824  155.6264 C   0  0  0  0  0  0  0  0  0  0  0  0
  130.8139  130.8100  156.7944 C   0  0  0  0  0  0  0  0  0  0  0  0
  131.1943  134.2554  158.1417 N   0  0  0  0  0  0  0  0  0  0  0  0
  131.5312  134.8071  157.4185 H   0  0  0  0  0  0  0  0  0  0  0  0
  132.2161  137.4218  163.2753 C   0  0  0  0  0  0  0  0  0  0  0  0
  131.1074  138.4234  163.4729 C   0  0  0  0  0  0  0  0  0  0  0  0
  131.3918  139.7762  163.4824 C   0  0  0  0  0  0  0  0  0  0  0  0
  130.3741  140.6950  163.6589 C   0  0  0  0  0  0  0  0  0  0  0  0
  129.0738  140.2607  163.8358 C   0  0  0  0  0  0  0  0  0  0  0  0
  128.7903  138.9077  163.8320 C   0  0  0  0  0  0  0  0  0  0  0  0
  129.8072  137.9890  163.6503 C   0  0  0  0  0  0  0  0  0  0  0  0
  135.4241  138.0391  162.6546 C   0  0  0  0  0  0  0  0  0  0  0  0
  136.3609  139.0550  162.6212 C   0  0  0  0  0  0  0  0  0  0  0  0
  137.3936  140.4723  161.3985 H   0  0  0  0  0  0  0  0  0  0  0  0
  136.2614  139.7729  159.3268 H   0  0  0  0  0  0  0  0  0  0  0  0
  134.5968  137.9594  159.3855 H   0  0  0  0  0  0  0  0  0  0  0  0
  133.7688  136.0117  160.5735 H   0  0  0  0  0  0  0  0  0  0  0  0
  134.0171  135.8406  162.3277 H   0  0  0  0  0  0  0  0  0  0  0  0
  132.2723  138.0572  161.2176 H   0  0  0  0  0  0  0  0  0  0  0  0
  131.4182  135.2074  161.9003 H   0  0  0  0  0  0  0  0  0  0  0  0
  130.3215  136.5560  161.5169 H   0  0  0  0  0  0  0  0  0  0  0  0
  131.8285  136.5356  159.3165 H   0  0  0  0  0  0  0  0  0  0  0  0
  129.9550  131.5809  159.4883 H   0  0  0  0  0  0  0  0  0  0  0  0
  130.3806  133.9233  155.5126 H   0  0  0  0  0  0  0  0  0  0  0  0
  130.2875  132.6254  153.4280 H   0  0  0  0  0  0  0  0  0  0  0  0
  129.1902  131.3276  152.1287 H   0  0  0  0  0  0  0  0  0  0  0  0
  129.1427  129.9533  150.0605 H   0  0  0  0  0  0  0  0  0  0  0  0
  130.4224  127.8533  149.9775 H   0  0  0  0  0  0  0  0  0  0  0  0
  131.8032  128.3941  153.8524 H   0  0  0  0  0  0  0  0  0  0  0  0
  130.8585  129.0076  155.6542 H   0  0  0  0  0  0  0  0  0  0  0  0
  130.9610  130.3057  157.7381 H   0  0  0  0  0  0  0  0  0  0  0  0
  131.9696  136.4989  163.8001 H   0  0  0  0  0  0  0  0  0  0  0  0
  133.1470  137.8276  163.6712 H   0  0  0  0  0  0  0  0  0  0  0  0
  132.4083  140.1153  163.3482 H   0  0  0  0  0  0  0  0  0  0  0  0
  130.5956  141.7520  163.6621 H   0  0  0  0  0  0  0  0  0  0  0  0
  128.2793  140.9784  163.9773 H   0  0  0  0  0  0  0  0  0  0  0  0
  127.7744  138.5684  163.9705 H   0  0  0  0  0  0  0  0  0  0  0  0
  129.5858  136.9319  163.6472 H   0  0  0  0  0  0  0  0  0  0  0  0
  135.1886  137.5523  163.5895 H   0  0  0  0  0  0  0  0  0  0  0  0
  136.8572  139.3622  163.5298 H   0  0  0  0  0  0  0  0  0  0  0  0
  1 36  2  0
  1  2  1  0
  1 37  1  0
  2  3  2  0
  2 38  1  0
  3  4  1  0
  3 39  1  0
  4  5  1  0
  4 35  2  0
  5  6  1  0
  5 40  1  0
  5 41  1  0
  6  7  1  0
  6 28  1  0
  6 42  1  0
  7  8  1  0
  7 43  1  0
  7 44  1  0
  8 45  1  0
  9  8  1  0
  9 26  2  0
  9 10  1  0
 10 11  1  0
 10 12  1  0
 12 13  2  0
 12 46  1  0
 13 14  1  0
 13 26  1  0
 14 25  1  0
 14 15  2  0
 15 16  1  0
 15 47  1  0
 16 17  2  0
 16 48  1  0
 17 18  1  0
 17 24  1  0
 18 23  1  0
 18 19  2  0
 19 20  1  0
 19 49  1  0
 20 21  2  0
 20 50  1  0
 21 22  1  0
 21 51  1  0
 22 23  2  0
 23 52  1  0
 24 25  2  0
 24 53  1  0
 25 54  1  0
 26 27  1  0
 28 29  1  0
 28 55  1  0
 28 56  1  0
 29 34  1  0
 29 30  2  0
 30 31  1  0
 30 57  1  0
 31 32  2  0
 31 58  1  0
 32 33  1  0
 32 59  1  0
 33 34  2  0
 33 60  1  0
 34 61  1  0
 35 36  1  0
 35 62  1  0
 36 63  1  0
M  CHG  1  26   1
M  END
>  <DOCK_score>  (1) 
-62.821404

>  <SMILES>  (1) 
c1ccc(CC(CNc2[nH]cc(-c3ccc(-c4cccnc4)cc3)[nH+]2)Cc2ccccc2)cc1

$$$$
