Oc1cccc(CC[NH+]2CC[C@@H](c3c[nH]c4ccccc34)C2)c1
     RDKit          3D

 46 49  0  0  1  0  0  0  0  0999 V2000
  125.4173  134.6623  160.4653 O   0  0  0  0  0  0  0  0  0  0  0  0
  126.4355  133.9803  159.8776 C   0  0  0  0  0  0  0  0  0  0  0  0
  126.2033  132.7336  159.3147 C   0  0  0  0  0  0  0  0  0  0  0  0
  127.2397  132.0427  158.7177 C   0  0  0  0  0  0  0  0  0  0  0  0
  128.5091  132.5902  158.6855 C   0  0  0  0  0  0  0  0  0  0  0  0
  128.7419  133.8346  159.2411 C   0  0  0  0  0  0  0  0  0  0  0  0
  130.1254  134.4308  159.1991 C   0  0  0  0  0  0  0  0  0  0  0  0
  130.1118  135.7995  159.8828 C   0  0  0  0  0  0  0  0  0  0  0  0
  131.4603  136.3807  159.8419 N   0  0  2  0  0  0  0  0  0  0  0  0
  131.7553  136.4888  158.8830 H   0  0  0  0  0  0  0  0  0  0  0  0
  132.4052  135.4961  160.5563 C   0  0  0  0  0  0  0  0  0  0  0  0
  133.3993  136.4557  161.2526 C   0  0  0  0  0  0  0  0  0  0  0  0
  132.4644  137.6193  161.6752 C   0  0  1  0  0  0  0  0  0  0  0  0
  131.9562  137.3883  162.6114 H   0  0  0  0  0  0  0  0  0  0  0  0
  133.2374  138.9075  161.7945 C   0  0  0  0  0  0  0  0  0  0  0  0
  133.3681  139.6611  162.8978 C   0  0  0  0  0  0  0  0  0  0  0  0
  134.1416  140.7564  162.6255 N   0  0  0  0  0  0  0  0  0  0  0  0
  134.3765  141.4458  163.2661 H   0  0  0  0  0  0  0  0  0  0  0  0
  134.5374  140.7338  161.3069 C   0  0  0  0  0  0  0  0  0  0  0  0
  135.3147  141.5828  160.5256 C   0  0  0  0  0  0  0  0  0  0  0  0
  135.5372  141.2805  159.2004 C   0  0  0  0  0  0  0  0  0  0  0  0
  134.9933  140.1355  158.6342 C   0  0  0  0  0  0  0  0  0  0  0  0
  134.2269  139.2879  159.3831 C   0  0  0  0  0  0  0  0  0  0  0  0
  133.9937  139.5715  160.7303 C   0  0  0  0  0  0  0  0  0  0  0  0
  131.4548  137.6947  160.5104 C   0  0  0  0  0  0  0  0  0  0  0  0
  127.7086  134.5297  159.8394 C   0  0  0  0  0  0  0  0  0  0  0  0
  125.6764  135.5203  160.8281 H   0  0  0  0  0  0  0  0  0  0  0  0
  125.2130  132.3036  159.3436 H   0  0  0  0  0  0  0  0  0  0  0  0
  127.0594  131.0721  158.2798 H   0  0  0  0  0  0  0  0  0  0  0  0
  129.3190  132.0467  158.2219 H   0  0  0  0  0  0  0  0  0  0  0  0
  130.8209  133.7719  159.7187 H   0  0  0  0  0  0  0  0  0  0  0  0
  130.4401  134.5459  158.1619 H   0  0  0  0  0  0  0  0  0  0  0  0
  129.4162  136.4584  159.3632 H   0  0  0  0  0  0  0  0  0  0  0  0
  129.7972  135.6843  160.9200 H   0  0  0  0  0  0  0  0  0  0  0  0
  131.8768  134.8945  161.2958 H   0  0  0  0  0  0  0  0  0  0  0  0
  132.9322  134.8544  159.8501 H   0  0  0  0  0  0  0  0  0  0  0  0
  134.1632  136.8017  160.5564 H   0  0  0  0  0  0  0  0  0  0  0  0
  133.8530  135.9832  162.1238 H   0  0  0  0  0  0  0  0  0  0  0  0
  132.9280  139.4360  163.8580 H   0  0  0  0  0  0  0  0  0  0  0  0
  135.7419  142.4762  160.9566 H   0  0  0  0  0  0  0  0  0  0  0  0
  136.1413  141.9406  158.5955 H   0  0  0  0  0  0  0  0  0  0  0  0
  135.1771  139.9131  157.5934 H   0  0  0  0  0  0  0  0  0  0  0  0
  133.8068  138.3991  158.9360 H   0  0  0  0  0  0  0  0  0  0  0  0
  131.7577  138.4700  159.8068 H   0  0  0  0  0  0  0  0  0  0  0  0
  130.4579  137.9113  160.8941 H   0  0  0  0  0  0  0  0  0  0  0  0
  127.8920  135.4999  160.2772 H   0  0  0  0  0  0  0  0  0  0  0  0
  1  2  1  0
  1 27  1  0
  2 26  2  0
  2  3  1  0
  3  4  2  0
  3 28  1  0
  4  5  1  0
  4 29  1  0
  5  6  2  0
  5 30  1  0
  6  7  1  0
  6 26  1  0
  7  8  1  0
  7 31  1  0
  7 32  1  0
  8  9  1  0
  8 33  1  0
  8 34  1  0
  9 10  1  6
  9 25  1  0
  9 11  1  0
 11 12  1  0
 11 35  1  0
 11 36  1  0
 12 13  1  0
 12 37  1  0
 12 38  1  0
 13 14  1  1
 13 15  1  0
 13 25  1  0
 15 24  1  0
 15 16  2  0
 16 17  1  0
 16 39  1  0
 17 18  1  0
 17 19  1  0
 19 24  2  0
 19 20  1  0
 20 21  2  0
 20 40  1  0
 21 22  1  0
 21 41  1  0
 22 23  2  0
 22 42  1  0
 23 24  1  0
 23 43  1  0
 25 44  1  0
 25 45  1  0
 26 46  1  0
M  CHG  1   9   1
M  END
>  <DOCK_score>  (1) 
-42.054958

>  <SMILES>  (1) 
Oc1cccc(CC[NH+]2CC[C@@H](c3c[nH]c4ccccc34)C2)c1

$$$$
