c1ccc(C(c2ccccc2)[NH+]2CCN(c3cccc4cc[nH]c34)CC2)cc1
     RDKit          3D

 54 58  0  0  1  0  0  0  0  0999 V2000
  126.4729  135.6160  157.4365 C   0  0  0  0  0  0  0  0  0  0  0  0
  126.3221  134.6766  158.4392 C   0  0  0  0  0  0  0  0  0  0  0  0
  127.4269  134.2298  159.1397 C   0  0  0  0  0  0  0  0  0  0  0  0
  128.6825  134.7227  158.8375 C   0  0  0  0  0  0  0  0  0  0  0  0
  129.8870  134.2362  159.6014 C   0  0  0  0  0  0  0  0  0  0  0  0
  130.4732  133.0360  158.9038 C   0  0  0  0  0  0  0  0  0  0  0  0
  130.3521  132.9059  157.5328 C   0  0  0  0  0  0  0  0  0  0  0  0
  130.8940  131.8073  156.8922 C   0  0  0  0  0  0  0  0  0  0  0  0
  131.5479  130.8336  157.6237 C   0  0  0  0  0  0  0  0  0  0  0  0
  131.6645  130.9610  158.9953 C   0  0  0  0  0  0  0  0  0  0  0  0
  131.1271  132.0623  159.6353 C   0  0  0  0  0  0  0  0  0  0  0  0
  130.8921  135.3056  159.6638 N   0  0  0  0  0  0  0  0  0  0  0  0
  131.1684  135.5621  158.7279 H   0  0  0  0  0  0  0  0  0  0  0  0
  130.3202  136.4757  160.3432 C   0  0  0  0  0  0  0  0  0  0  0  0
  131.3607  137.5967  160.3918 C   0  0  0  0  0  0  0  0  0  0  0  0
  132.5520  137.1246  161.1114 N   0  0  0  0  0  0  0  0  0  0  0  0
  133.5058  138.1413  161.2233 C   0  0  0  0  0  0  0  0  0  0  0  0
  133.9193  138.5728  162.4717 C   0  0  0  0  0  0  0  0  0  0  0  0
  134.8610  139.5845  162.5924 C   0  0  0  0  0  0  0  0  0  0  0  0
  135.4052  140.1641  161.4812 C   0  0  0  0  0  0  0  0  0  0  0  0
  135.0081  139.7413  160.2094 C   0  0  0  0  0  0  0  0  0  0  0  0
  135.3757  140.1327  158.8466 C   0  0  0  0  0  0  0  0  0  0  0  0
  134.6566  139.3669  158.0103 C   0  0  0  0  0  0  0  0  0  0  0  0
  133.8594  138.5174  158.7261 N   0  0  0  0  0  0  0  0  0  0  0  0
  133.2494  137.8684  158.3416 H   0  0  0  0  0  0  0  0  0  0  0  0
  134.0511  138.7217  160.0759 C   0  0  0  0  0  0  0  0  0  0  0  0
  133.1212  135.9382  160.4568 C   0  0  0  0  0  0  0  0  0  0  0  0
  132.0663  134.8308  160.4077 C   0  0  0  0  0  0  0  0  0  0  0  0
  128.8326  135.6662  157.8383 C   0  0  0  0  0  0  0  0  0  0  0  0
  127.7284  136.1089  157.1343 C   0  0  0  0  0  0  0  0  0  0  0  0
  125.6096  135.9652  156.8895 H   0  0  0  0  0  0  0  0  0  0  0  0
  125.3410  134.2917  158.6757 H   0  0  0  0  0  0  0  0  0  0  0  0
  127.3092  133.4961  159.9234 H   0  0  0  0  0  0  0  0  0  0  0  0
  129.5884  133.9588  160.6123 H   0  0  0  0  0  0  0  0  0  0  0  0
  129.8373  133.6644  156.9619 H   0  0  0  0  0  0  0  0  0  0  0  0
  130.8026  131.7076  155.8207 H   0  0  0  0  0  0  0  0  0  0  0  0
  131.9674  129.9731  157.1238 H   0  0  0  0  0  0  0  0  0  0  0  0
  132.1751  130.2001  159.5669 H   0  0  0  0  0  0  0  0  0  0  0  0
  131.2179  132.1617  160.7068 H   0  0  0  0  0  0  0  0  0  0  0  0
  130.0334  136.2021  161.3586 H   0  0  0  0  0  0  0  0  0  0  0  0
  129.4414  136.8191  159.7974 H   0  0  0  0  0  0  0  0  0  0  0  0
  130.9416  138.4598  160.9090 H   0  0  0  0  0  0  0  0  0  0  0  0
  131.6377  137.8799  159.3764 H   0  0  0  0  0  0  0  0  0  0  0  0
  133.5017  138.1214  163.3596 H   0  0  0  0  0  0  0  0  0  0  0  0
  135.1701  139.9137  163.5735 H   0  0  0  0  0  0  0  0  0  0  0  0
  136.1411  140.9476  161.5854 H   0  0  0  0  0  0  0  0  0  0  0  0
  136.0899  140.8932  158.5674 H   0  0  0  0  0  0  0  0  0  0  0  0
  134.7018  139.4146  156.9323 H   0  0  0  0  0  0  0  0  0  0  0  0
  133.4274  136.1942  159.4423 H   0  0  0  0  0  0  0  0  0  0  0  0
  133.9868  135.5913  161.0215 H   0  0  0  0  0  0  0  0  0  0  0  0
  131.7705  134.5656  161.4227 H   0  0  0  0  0  0  0  0  0  0  0  0
  132.4819  133.9549  159.9098 H   0  0  0  0  0  0  0  0  0  0  0  0
  129.8131  136.0546  157.6051 H   0  0  0  0  0  0  0  0  0  0  0  0
  127.8462  136.8432  156.3511 H   0  0  0  0  0  0  0  0  0  0  0  0
  1 30  2  0
  1  2  1  0
  1 31  1  0
  2  3  2  0
  2 32  1  0
  3  4  1  0
  3 33  1  0
  4  5  1  0
  4 29  2  0
  5  6  1  0
  5 12  1  0
  5 34  1  0
  6 11  1  0
  6  7  2  0
  7  8  1  0
  7 35  1  0
  8  9  2  0
  8 36  1  0
  9 10  1  0
  9 37  1  0
 10 11  2  0
 10 38  1  0
 11 39  1  0
 12 13  1  0
 12 28  1  0
 12 14  1  0
 14 15  1  0
 14 40  1  0
 14 41  1  0
 15 16  1  0
 15 42  1  0
 15 43  1  0
 16 17  1  0
 16 27  1  0
 17 26  1  0
 17 18  2  0
 18 19  1  0
 18 44  1  0
 19 20  2  0
 19 45  1  0
 20 21  1  0
 20 46  1  0
 21 26  2  0
 21 22  1  0
 22 23  2  0
 22 47  1  0
 23 24  1  0
 23 48  1  0
 24 25  1  0
 24 26  1  0
 27 28  1  0
 27 49  1  0
 27 50  1  0
 28 51  1  0
 28 52  1  0
 29 30  1  0
 29 53  1  0
 30 54  1  0
M  CHG  1  12   1
M  END
>  <DOCK_score>  (1) 
-60.988907

>  <SMILES>  (1) 
c1ccc(C(c2ccccc2)[NH+]2CCN(c3cccc4cc[nH]c34)CC2)cc1

$$$$
