OCC[C@@H](Cc1ccccc1)Nc1[nH]cc(-c2ccc(-c3ccccc3)cc2)[nH+]1
     RDKit          3D

 55 58  0  0  1  0  0  0  0  0999 V2000
  132.4282  134.4331  163.6717 O   0  0  0  0  0  0  0  0  0  0  0  0
  132.7868  135.8002  163.4600 C   0  0  0  0  0  0  0  0  0  0  0  0
  132.8418  136.0863  161.9579 C   0  0  0  0  0  0  0  0  0  0  0  0
  131.4699  135.8168  161.3368 C   0  0  1  0  0  0  0  0  0  0  0  0
  131.0387  134.9206  161.7830 H   0  0  0  0  0  0  0  0  0  0  0  0
  130.5486  137.0102  161.5978 C   0  0  0  0  0  0  0  0  0  0  0  0
  129.1128  136.5796  161.4433 C   0  0  0  0  0  0  0  0  0  0  0  0
  128.4921  136.6722  160.2116 C   0  0  0  0  0  0  0  0  0  0  0  0
  127.1765  136.2729  160.0688 C   0  0  0  0  0  0  0  0  0  0  0  0
  126.4782  135.7906  161.1601 C   0  0  0  0  0  0  0  0  0  0  0  0
  127.0974  135.7028  162.3930 C   0  0  0  0  0  0  0  0  0  0  0  0
  128.4146  136.0974  162.5346 C   0  0  0  0  0  0  0  0  0  0  0  0
  131.6176  135.6207  159.8926 N   0  0  0  0  0  0  0  0  0  0  0  0
  131.2272  134.4258  159.3128 C   0  0  0  0  0  0  0  0  0  0  0  0
  130.6956  133.3609  159.9730 N   0  0  0  0  0  0  0  0  0  0  0  0
  130.5234  133.3033  160.9258 H   0  0  0  0  0  0  0  0  0  0  0  0
  130.4483  132.3827  159.0412 C   0  0  0  0  0  0  0  0  0  0  0  0
  130.8311  132.8792  157.8380 C   0  0  0  0  0  0  0  0  0  0  0  0
  130.7445  132.1755  156.5361 C   0  0  0  0  0  0  0  0  0  0  0  0
  129.9749  132.7114  155.5034 C   0  0  0  0  0  0  0  0  0  0  0  0
  129.8990  132.0602  154.2920 C   0  0  0  0  0  0  0  0  0  0  0  0
  130.5827  130.8598  154.1016 C   0  0  0  0  0  0  0  0  0  0  0  0
  130.4961  130.1558  152.7991 C   0  0  0  0  0  0  0  0  0  0  0  0
  130.6062  128.7673  152.7457 C   0  0  0  0  0  0  0  0  0  0  0  0
  130.5201  128.1173  151.5313 C   0  0  0  0  0  0  0  0  0  0  0  0
  130.3351  128.8422  150.3673 C   0  0  0  0  0  0  0  0  0  0  0  0
  130.2307  130.2203  150.4140 C   0  0  0  0  0  0  0  0  0  0  0  0
  130.3099  130.8807  151.6231 C   0  0  0  0  0  0  0  0  0  0  0  0
  131.3475  130.3209  155.1359 C   0  0  0  0  0  0  0  0  0  0  0  0
  131.4281  130.9745  156.3455 C   0  0  0  0  0  0  0  0  0  0  0  0
  131.3096  134.1332  158.0379 N   0  0  0  0  0  0  0  0  0  0  0  0
  131.6536  134.7208  157.3470 H   0  0  0  0  0  0  0  0  0  0  0  0
  133.0467  133.7995  163.2831 H   0  0  0  0  0  0  0  0  0  0  0  0
  133.7643  135.9921  163.9025 H   0  0  0  0  0  0  0  0  0  0  0  0
  132.0435  136.4471  163.9261 H   0  0  0  0  0  0  0  0  0  0  0  0
  133.5850  135.4394  161.4919 H   0  0  0  0  0  0  0  0  0  0  0  0
  133.1154  137.1289  161.7966 H   0  0  0  0  0  0  0  0  0  0  0  0
  130.7103  137.3794  162.6106 H   0  0  0  0  0  0  0  0  0  0  0  0
  130.7693  137.8027  160.8828 H   0  0  0  0  0  0  0  0  0  0  0  0
  129.0362  137.0533  159.3601 H   0  0  0  0  0  0  0  0  0  0  0  0
  126.6927  136.3418  159.1057 H   0  0  0  0  0  0  0  0  0  0  0  0
  125.4490  135.4827  161.0495 H   0  0  0  0  0  0  0  0  0  0  0  0
  126.5517  135.3265  163.2456 H   0  0  0  0  0  0  0  0  0  0  0  0
  128.8981  136.0292  163.4979 H   0  0  0  0  0  0  0  0  0  0  0  0
  131.9889  136.3282  159.3425 H   0  0  0  0  0  0  0  0  0  0  0  0
  130.0263  131.4065  159.2296 H   0  0  0  0  0  0  0  0  0  0  0  0
  129.4422  133.6390  155.6524 H   0  0  0  0  0  0  0  0  0  0  0  0
  129.3066  132.4774  153.4911 H   0  0  0  0  0  0  0  0  0  0  0  0
  130.7545  128.2010  153.6533 H   0  0  0  0  0  0  0  0  0  0  0  0
  130.6009  127.0411  151.4892 H   0  0  0  0  0  0  0  0  0  0  0  0
  130.2727  128.3299  149.4186 H   0  0  0  0  0  0  0  0  0  0  0  0
  130.0869  130.7809  149.5021 H   0  0  0  0  0  0  0  0  0  0  0  0
  130.2284  131.9570  151.6582 H   0  0  0  0  0  0  0  0  0  0  0  0
  131.8764  129.3909  154.9884 H   0  0  0  0  0  0  0  0  0  0  0  0
  132.0206  130.5574  157.1462 H   0  0  0  0  0  0  0  0  0  0  0  0
  1  2  1  0
  1 33  1  0
  2  3  1  0
  2 34  1  0
  2 35  1  0
  3  4  1  0
  3 36  1  0
  3 37  1  0
  4  5  1  1
  4  6  1  0
  4 13  1  0
  6  7  1  0
  6 38  1  0
  6 39  1  0
  7 12  1  0
  7  8  2  0
  8  9  1  0
  8 40  1  0
  9 10  2  0
  9 41  1  0
 10 11  1  0
 10 42  1  0
 11 12  2  0
 11 43  1  0
 12 44  1  0
 13 45  1  0
 14 13  1  0
 14 31  2  0
 14 15  1  0
 15 16  1  0
 15 17  1  0
 17 18  2  0
 17 46  1  0
 18 19  1  0
 18 31  1  0
 19 30  1  0
 19 20  2  0
 20 21  1  0
 20 47  1  0
 21 22  2  0
 21 48  1  0
 22 23  1  0
 22 29  1  0
 23 28  1  0
 23 24  2  0
 24 25  1  0
 24 49  1  0
 25 26  2  0
 25 50  1  0
 26 27  1  0
 26 51  1  0
 27 28  2  0
 27 52  1  0
 28 53  1  0
 29 30  2  0
 29 54  1  0
 30 55  1  0
 31 32  1  0
M  CHG  1  31   1
M  END
>  <DOCK_score>  (1) 
-60.071095

>  <SMILES>  (1) 
OCC[C@@H](Cc1ccccc1)Nc1[nH]cc(-c2ccc(-c3ccccc3)cc2)[nH+]1

$$$$
