CCc1ccc([C@H](CCc2ccc(N)cc2)Nc2[nH]cc(-c3cccnc3)[nH+]2)cc1
     RDKit          3D

 58 61  0  0  1  0  0  0  0  0999 V2000
  130.7847  142.0861  163.1571 C   0  0  0  0  0  0  0  0  0  0  0  0
  129.9099  141.4859  162.0548 C   0  0  0  0  0  0  0  0  0  0  0  0
  130.3498  140.0711  161.7789 C   0  0  0  0  0  0  0  0  0  0  0  0
  129.7838  139.0224  162.4793 C   0  0  0  0  0  0  0  0  0  0  0  0
  130.1842  137.7242  162.2231 C   0  0  0  0  0  0  0  0  0  0  0  0
  131.1569  137.4758  161.2729 C   0  0  0  0  0  0  0  0  0  0  0  0
  131.5960  136.0609  160.9961 C   0  0  2  0  0  0  0  0  0  0  0  0
  131.0396  135.3762  161.6362 H   0  0  0  0  0  0  0  0  0  0  0  0
  133.0926  135.9257  161.2838 C   0  0  0  0  0  0  0  0  0  0  0  0
  133.3103  135.7692  162.7901 C   0  0  0  0  0  0  0  0  0  0  0  0
  134.7844  135.6361  163.0734 C   0  0  0  0  0  0  0  0  0  0  0  0
  135.5453  136.7654  163.3144 C   0  0  0  0  0  0  0  0  0  0  0  0
  136.8954  136.6465  163.5799 C   0  0  0  0  0  0  0  0  0  0  0  0
  137.4911  135.3918  163.5936 C   0  0  0  0  0  0  0  0  0  0  0  0
  138.8574  135.2684  163.8556 N   0  0  0  0  0  0  0  0  0  0  0  0
  136.7250  134.2598  163.3455 C   0  0  0  0  0  0  0  0  0  0  0  0
  135.3743  134.3854  163.0862 C   0  0  0  0  0  0  0  0  0  0  0  0
  131.3372  135.7352  159.5914 N   0  0  0  0  0  0  0  0  0  0  0  0
  131.0542  134.4308  159.2241 C   0  0  0  0  0  0  0  0  0  0  0  0
  130.4405  133.5022  160.0071 N   0  0  0  0  0  0  0  0  0  0  0  0
  130.1253  133.6339  160.9149 H   0  0  0  0  0  0  0  0  0  0  0  0
  130.3471  132.3445  159.2733 C   0  0  0  0  0  0  0  0  0  0  0  0
  130.9136  132.5963  158.0673 C   0  0  0  0  0  0  0  0  0  0  0  0
  131.0460  131.6331  156.9469 C   0  0  0  0  0  0  0  0  0  0  0  0
  131.0403  132.0793  155.6220 C   0  0  0  0  0  0  0  0  0  0  0  0
  131.1729  131.1414  154.6130 C   0  0  0  0  0  0  0  0  0  0  0  0
  131.2938  129.8039  154.9441 C   0  0  0  0  0  0  0  0  0  0  0  0
  131.2905  129.4120  156.2034 N   0  0  0  0  0  0  0  0  0  0  0  0
  131.1722  130.2683  157.1976 C   0  0  0  0  0  0  0  0  0  0  0  0
  131.3383  133.8848  158.0669 N   0  0  0  0  0  0  0  0  0  0  0  0
  131.7819  134.3306  157.3284 H   0  0  0  0  0  0  0  0  0  0  0  0
  131.7266  138.5250  160.5761 C   0  0  0  0  0  0  0  0  0  0  0  0
  131.3231  139.8227  160.8293 C   0  0  0  0  0  0  0  0  0  0  0  0
  130.6848  141.4910  164.0648 H   0  0  0  0  0  0  0  0  0  0  0  0
  130.4666  143.1094  163.3565 H   0  0  0  0  0  0  0  0  0  0  0  0
  131.8262  142.0857  162.8351 H   0  0  0  0  0  0  0  0  0  0  0  0
  128.8686  141.4864  162.3765 H   0  0  0  0  0  0  0  0  0  0  0  0
  130.0100  142.0809  161.1470 H   0  0  0  0  0  0  0  0  0  0  0  0
  129.0266  139.2168  163.2243 H   0  0  0  0  0  0  0  0  0  0  0  0
  129.7389  136.9045  162.7672 H   0  0  0  0  0  0  0  0  0  0  0  0
  133.4841  135.0495  160.7671 H   0  0  0  0  0  0  0  0  0  0  0  0
  133.6120  136.8172  160.9323 H   0  0  0  0  0  0  0  0  0  0  0  0
  132.9187  136.6454  163.3068 H   0  0  0  0  0  0  0  0  0  0  0  0
  132.7908  134.8777  163.1417 H   0  0  0  0  0  0  0  0  0  0  0  0
  135.0824  137.7410  163.2989 H   0  0  0  0  0  0  0  0  0  0  0  0
  137.4881  137.5285  163.7724 H   0  0  0  0  0  0  0  0  0  0  0  0
  139.2724  134.3917  163.8646 H   0  0  0  0  0  0  0  0  0  0  0  0
  139.3914  136.0595  164.0288 H   0  0  0  0  0  0  0  0  0  0  0  0
  137.1851  133.2829  163.3549 H   0  0  0  0  0  0  0  0  0  0  0  0
  134.7781  133.5058  162.8929 H   0  0  0  0  0  0  0  0  0  0  0  0
  131.3642  136.4335  158.9188 H   0  0  0  0  0  0  0  0  0  0  0  0
  129.9099  131.4113  159.5966 H   0  0  0  0  0  0  0  0  0  0  0  0
  130.9394  133.1297  155.3920 H   0  0  0  0  0  0  0  0  0  0  0  0
  131.1773  131.4500  153.5780 H   0  0  0  0  0  0  0  0  0  0  0  0
  131.3930  129.0688  154.1591 H   0  0  0  0  0  0  0  0  0  0  0  0
  131.1738  129.9091  158.2163 H   0  0  0  0  0  0  0  0  0  0  0  0
  132.4866  138.3308  159.8337 H   0  0  0  0  0  0  0  0  0  0  0  0
  131.7683  140.6424  160.2849 H   0  0  0  0  0  0  0  0  0  0  0  0
  1  2  1  0
  1 34  1  0
  1 35  1  0
  1 36  1  0
  2  3  1  0
  2 37  1  0
  2 38  1  0
  3 33  2  0
  3  4  1  0
  4  5  2  0
  4 39  1  0
  5  6  1  0
  5 40  1  0
  6  7  1  0
  6 32  2  0
  7  8  1  1
  7  9  1  0
  7 18  1  0
  9 10  1  0
  9 41  1  0
  9 42  1  0
 10 11  1  0
 10 43  1  0
 10 44  1  0
 11 17  1  0
 11 12  2  0
 12 13  1  0
 12 45  1  0
 13 14  2  0
 13 46  1  0
 14 15  1  0
 14 16  1  0
 15 47  1  0
 15 48  1  0
 16 17  2  0
 16 49  1  0
 17 50  1  0
 18 51  1  0
 19 18  1  0
 19 30  2  0
 19 20  1  0
 20 21  1  0
 20 22  1  0
 22 23  2  0
 22 52  1  0
 23 24  1  0
 23 30  1  0
 24 29  1  0
 24 25  2  0
 25 26  1  0
 25 53  1  0
 26 27  2  0
 26 54  1  0
 27 28  1  0
 27 55  1  0
 28 29  2  0
 29 56  1  0
 30 31  1  0
 32 33  1  0
 32 57  1  0
 33 58  1  0
M  CHG  1  30   1
M  END
>  <DOCK_score>  (1) 
-57.202507

>  <SMILES>  (1) 
CCc1ccc([C@H](CCc2ccc(N)cc2)Nc2[nH]cc(-c3cccnc3)[nH+]2)cc1

$$$$
