CCc1ccc(-c2c[nH]c(NC(C3=C[C@H](Br)CC3)c3ccc(F)cc3)[nH+]2)cc1
     RDKit          3D

 52 55  0  0  1  0  0  0  0  0999 V2000
  130.6014  128.4345  151.6853 C   0  0  0  0  0  0  0  0  0  0  0  0
  131.6688  129.4742  152.0320 C   0  0  0  0  0  0  0  0  0  0  0  0
  131.2742  130.1988  153.2931 C   0  0  0  0  0  0  0  0  0  0  0  0
  131.6785  129.7110  154.5230 C   0  0  0  0  0  0  0  0  0  0  0  0
  131.3194  130.3696  155.6813 C   0  0  0  0  0  0  0  0  0  0  0  0
  130.5480  131.5283  155.6104 C   0  0  0  0  0  0  0  0  0  0  0  0
  130.1588  132.2408  156.8518 C   0  0  0  0  0  0  0  0  0  0  0  0
  129.4261  131.7268  157.8707 C   0  0  0  0  0  0  0  0  0  0  0  0
  129.3054  132.7177  158.8144 N   0  0  0  0  0  0  0  0  0  0  0  0
  128.8370  132.6507  159.6611 H   0  0  0  0  0  0  0  0  0  0  0  0
  129.9617  133.8118  158.3406 C   0  0  0  0  0  0  0  0  0  0  0  0
  130.0756  135.0283  158.9915 N   0  0  0  0  0  0  0  0  0  0  0  0
  129.0152  135.4764  159.8976 C   0  0  1  0  0  0  0  0  0  0  0  0
  129.3805  136.8208  160.4723 C   0  0  0  0  0  0  0  0  0  0  0  0
  130.1066  137.7141  159.8572 C   0  0  0  0  0  0  0  0  0  0  0  0
  130.2852  138.9499  160.7082 C   0  0  2  0  0  0  0  0  0  0  0  0
  129.6261  139.7467  160.3636 H   0  0  0  0  0  0  0  0  0  0  0  0
  132.1582  139.5460  160.6656 Br  0  0  0  0  0  0  0  0  0  0  0  0
  129.8914  138.5044  162.1357 C   0  0  0  0  0  0  0  0  0  0  0  0
  128.9488  137.3143  161.8337 C   0  0  0  0  0  0  0  0  0  0  0  0
  127.7194  135.5905  159.1369 C   0  0  0  0  0  0  0  0  0  0  0  0
  126.5169  135.3813  159.7860 C   0  0  0  0  0  0  0  0  0  0  0  0
  125.3279  135.4858  159.0894 C   0  0  0  0  0  0  0  0  0  0  0  0
  125.3413  135.8000  157.7411 C   0  0  0  0  0  0  0  0  0  0  0  0
  124.1795  135.9019  157.0590 F   0  0  0  0  0  0  0  0  0  0  0  0
  126.5466  136.0042  157.0909 C   0  0  0  0  0  0  0  0  0  0  0  0
  127.7341  135.9039  157.7906 C   0  0  0  0  0  0  0  0  0  0  0  0
  130.4729  133.5220  157.1690 N   0  0  0  0  0  0  0  0  0  0  0  0
  130.9923  134.1270  156.6168 H   0  0  0  0  0  0  0  0  0  0  0  0
  130.1388  132.0119  154.3689 C   0  0  0  0  0  0  0  0  0  0  0  0
  130.5078  131.3475  153.2168 C   0  0  0  0  0  0  0  0  0  0  0  0
  129.6442  128.9331  151.5334 H   0  0  0  0  0  0  0  0  0  0  0  0
  130.8871  127.9107  150.7731 H   0  0  0  0  0  0  0  0  0  0  0  0
  130.5125  127.7187  152.5024 H   0  0  0  0  0  0  0  0  0  0  0  0
  131.7578  130.1900  151.2148 H   0  0  0  0  0  0  0  0  0  0  0  0
  132.6262  128.9756  152.1839 H   0  0  0  0  0  0  0  0  0  0  0  0
  132.2762  128.8130  154.5768 H   0  0  0  0  0  0  0  0  0  0  0  0
  131.6352  129.9878  156.6409 H   0  0  0  0  0  0  0  0  0  0  0  0
  129.0189  130.7283  157.9304 H   0  0  0  0  0  0  0  0  0  0  0  0
  130.8576  135.5839  158.8476 H   0  0  0  0  0  0  0  0  0  0  0  0
  128.8996  134.7549  160.7063 H   0  0  0  0  0  0  0  0  0  0  0  0
  130.5246  137.5870  158.8695 H   0  0  0  0  0  0  0  0  0  0  0  0
  130.7663  138.1821  162.7003 H   0  0  0  0  0  0  0  0  0  0  0  0
  129.3603  139.2983  162.6608 H   0  0  0  0  0  0  0  0  0  0  0  0
  127.9110  137.6461  161.8058 H   0  0  0  0  0  0  0  0  0  0  0  0
  129.0777  136.5304  162.5802 H   0  0  0  0  0  0  0  0  0  0  0  0
  126.5066  135.1367  160.8378 H   0  0  0  0  0  0  0  0  0  0  0  0
  124.3885  135.3220  159.5966 H   0  0  0  0  0  0  0  0  0  0  0  0
  126.5585  136.2453  156.0381 H   0  0  0  0  0  0  0  0  0  0  0  0
  128.6742  136.0671  157.2846 H   0  0  0  0  0  0  0  0  0  0  0  0
  129.5368  132.9066  154.3083 H   0  0  0  0  0  0  0  0  0  0  0  0
  130.1945  131.7234  152.2540 H   0  0  0  0  0  0  0  0  0  0  0  0
  1  2  1  0
  1 32  1  0
  1 33  1  0
  1 34  1  0
  2  3  1  0
  2 35  1  0
  2 36  1  0
  3 31  2  0
  3  4  1  0
  4  5  2  0
  4 37  1  0
  5  6  1  0
  5 38  1  0
  6  7  1  0
  6 30  2  0
  7 28  1  0
  7  8  2  0
  8  9  1  0
  8 39  1  0
  9 10  1  0
  9 11  1  0
 11 12  1  0
 11 28  2  0
 12 13  1  0
 12 40  1  0
 13 14  1  0
 13 21  1  0
 13 41  1  1
 14 20  1  0
 14 15  2  0
 15 16  1  0
 15 42  1  0
 16 17  1  6
 16 18  1  0
 16 19  1  0
 19 20  1  0
 19 43  1  0
 19 44  1  0
 20 45  1  0
 20 46  1  0
 21 27  1  0
 21 22  2  0
 22 23  1  0
 22 47  1  0
 23 24  2  0
 23 48  1  0
 24 25  1  0
 24 26  1  0
 26 27  2  0
 26 49  1  0
 27 50  1  0
 28 29  1  0
 30 31  1  0
 30 51  1  0
 31 52  1  0
M  CHG  1  28   1
M  END
>  <DOCK_score>  (1) 
-62.909348

>  <SMILES>  (1) 
CCc1ccc(-c2c[nH]c(NC(C3=C[C@H](Br)CC3)c3ccc(F)cc3)[nH+]2)cc1

$$$$
