COC(=O)/C=C/[C@@H](Nc1[nH]cc(-c2ccc(N)cc2)[nH+]1)c1ccc(-c2ccc(F)cc2)cc1
     RDKit          3D

 57 60  0  0  1  0  0  0  0  0999 V2000
  125.8716  136.1465  164.9497 C   0  0  0  0  0  0  0  0  0  0  0  0
  127.0786  135.6187  164.3391 O   0  0  0  0  0  0  0  0  0  0  0  0
  127.3280  135.9800  163.0646 C   0  0  0  0  0  0  0  0  0  0  0  0
  126.5577  136.7160  162.4798 O   0  0  0  0  0  0  0  0  0  0  0  0
  128.5313  135.4838  162.3823 C   0  0  0  0  0  0  0  0  0  0  0  0
  128.7775  135.8406  161.1241 C   0  0  0  0  0  0  0  0  0  0  0  0
  130.0116  135.3318  160.4245 C   0  0  1  0  0  0  0  0  0  0  0  0
  130.2765  134.3519  160.8216 H   0  0  0  0  0  0  0  0  0  0  0  0
  129.7479  135.2215  158.9877 N   0  0  0  0  0  0  0  0  0  0  0  0
  129.8560  133.9942  158.3564 C   0  0  0  0  0  0  0  0  0  0  0  0
  129.6211  132.7836  158.9315 N   0  0  0  0  0  0  0  0  0  0  0  0
  129.3506  132.6265  159.8497 H   0  0  0  0  0  0  0  0  0  0  0  0
  129.8382  131.8243  157.9709 C   0  0  0  0  0  0  0  0  0  0  0  0
  130.1990  132.4767  156.8384 C   0  0  0  0  0  0  0  0  0  0  0  0
  130.5319  131.8474  155.5369 C   0  0  0  0  0  0  0  0  0  0  0  0
  130.2770  132.5277  154.3470 C   0  0  0  0  0  0  0  0  0  0  0  0
  130.5926  131.9431  153.1386 C   0  0  0  0  0  0  0  0  0  0  0  0
  131.1535  130.6720  153.1059 C   0  0  0  0  0  0  0  0  0  0  0  0
  131.4674  130.0796  151.8802 N   0  0  0  0  0  0  0  0  0  0  0  0
  131.4031  129.9895  154.2905 C   0  0  0  0  0  0  0  0  0  0  0  0
  131.0946  130.5725  155.5015 C   0  0  0  0  0  0  0  0  0  0  0  0
  130.1961  133.8070  157.1043 N   0  0  0  0  0  0  0  0  0  0  0  0
  130.4129  134.5078  156.4697 H   0  0  0  0  0  0  0  0  0  0  0  0
  131.1507  136.2915  160.6540 C   0  0  0  0  0  0  0  0  0  0  0  0
  131.0420  137.6039  160.2310 C   0  0  0  0  0  0  0  0  0  0  0  0
  132.0819  138.4871  160.4390 C   0  0  0  0  0  0  0  0  0  0  0  0
  133.2429  138.0545  161.0766 C   0  0  0  0  0  0  0  0  0  0  0  0
  134.3643  138.9995  161.3031 C   0  0  0  0  0  0  0  0  0  0  0  0
  135.6766  138.5316  161.3359 C   0  0  0  0  0  0  0  0  0  0  0  0
  136.7162  139.4138  161.5463 C   0  0  0  0  0  0  0  0  0  0  0  0
  136.4576  140.7625  161.7253 C   0  0  0  0  0  0  0  0  0  0  0  0
  137.4782  141.6236  161.9307 F   0  0  0  0  0  0  0  0  0  0  0  0
  135.1536  141.2318  161.6987 C   0  0  0  0  0  0  0  0  0  0  0  0
  134.1083  140.3574  161.4831 C   0  0  0  0  0  0  0  0  0  0  0  0
  133.3493  136.7298  161.4956 C   0  0  0  0  0  0  0  0  0  0  0  0
  132.3009  135.8566  161.2875 C   0  0  0  0  0  0  0  0  0  0  0  0
  125.9145  137.2356  164.9570 H   0  0  0  0  0  0  0  0  0  0  0  0
  125.0027  135.8211  164.3776 H   0  0  0  0  0  0  0  0  0  0  0  0
  125.7913  135.7791  165.9727 H   0  0  0  0  0  0  0  0  0  0  0  0
  129.2157  134.8298  162.9021 H   0  0  0  0  0  0  0  0  0  0  0  0
  128.0931  136.4947  160.6044 H   0  0  0  0  0  0  0  0  0  0  0  0
  129.4977  136.0084  158.4786 H   0  0  0  0  0  0  0  0  0  0  0  0
  129.7401  130.7559  158.0947 H   0  0  0  0  0  0  0  0  0  0  0  0
  129.8367  133.5135  154.3719 H   0  0  0  0  0  0  0  0  0  0  0  0
  130.3992  132.4715  152.2169 H   0  0  0  0  0  0  0  0  0  0  0  0
  131.8592  129.1926  151.8566 H   0  0  0  0  0  0  0  0  0  0  0  0
  131.2935  130.5553  151.0529 H   0  0  0  0  0  0  0  0  0  0  0  0
  131.8387  129.0017  154.2627 H   0  0  0  0  0  0  0  0  0  0  0  0
  131.2891  130.0419  156.4218 H   0  0  0  0  0  0  0  0  0  0  0  0
  130.1415  137.9382  159.7372 H   0  0  0  0  0  0  0  0  0  0  0  0
  131.9961  139.5115  160.1079 H   0  0  0  0  0  0  0  0  0  0  0  0
  135.8793  137.4799  161.1972 H   0  0  0  0  0  0  0  0  0  0  0  0
  137.7335  139.0522  161.5723 H   0  0  0  0  0  0  0  0  0  0  0  0
  134.9557  142.2837  161.8428 H   0  0  0  0  0  0  0  0  0  0  0  0
  133.0927  140.7240  161.4588 H   0  0  0  0  0  0  0  0  0  0  0  0
  134.2488  136.3881  161.9860 H   0  0  0  0  0  0  0  0  0  0  0  0
  132.3807  134.8308  161.6156 H   0  0  0  0  0  0  0  0  0  0  0  0
  1  2  1  0
  1 37  1  0
  1 38  1  0
  1 39  1  0
  2  3  1  0
  3  4  2  0
  3  5  1  0
  5  6  2  0
  5 40  1  0
  6  7  1  0
  6 41  1  0
  7  8  1  1
  7  9  1  0
  7 24  1  0
  9 42  1  0
 10  9  1  0
 10 22  2  0
 10 11  1  0
 11 12  1  0
 11 13  1  0
 13 14  2  0
 13 43  1  0
 14 15  1  0
 14 22  1  0
 15 21  1  0
 15 16  2  0
 16 17  1  0
 16 44  1  0
 17 18  2  0
 17 45  1  0
 18 19  1  0
 18 20  1  0
 19 46  1  0
 19 47  1  0
 20 21  2  0
 20 48  1  0
 21 49  1  0
 22 23  1  0
 24 36  1  0
 24 25  2  0
 25 26  1  0
 25 50  1  0
 26 27  2  0
 26 51  1  0
 27 28  1  0
 27 35  1  0
 28 34  1  0
 28 29  2  0
 29 30  1  0
 29 52  1  0
 30 31  2  0
 30 53  1  0
 31 32  1  0
 31 33  1  0
 33 34  2  0
 33 54  1  0
 34 55  1  0
 35 36  2  0
 35 56  1  0
 36 57  1  0
M  CHG  1  22   1
M  END
>  <DOCK_score>  (1) 
-54.508186

>  <SMILES>  (1) 
COC(=O)/C=C/[C@@H](Nc1[nH]cc(-c2ccc(N)cc2)[nH+]1)c1ccc(-c2ccc(F)cc2)cc1

$$$$
