Nc1ccc(-c2c[nH]c(N[C@@H](CC3=CCCC3)C3=CCC3)[nH+]2)cc1
     RDKit          3D

 49 52  0  0  1  0  0  0  0  0999 V2000
  131.5902  129.4007  151.3439 N   0  0  0  0  0  0  0  0  0  0  0  0
  131.2307  130.0755  152.5130 C   0  0  0  0  0  0  0  0  0  0  0  0
  130.4545  131.2259  152.4392 C   0  0  0  0  0  0  0  0  0  0  0  0
  130.0984  131.8939  153.5918 C   0  0  0  0  0  0  0  0  0  0  0  0
  130.5177  131.4143  154.8318 C   0  0  0  0  0  0  0  0  0  0  0  0
  130.1359  132.1311  156.0733 C   0  0  0  0  0  0  0  0  0  0  0  0
  129.4114  131.6198  157.0991 C   0  0  0  0  0  0  0  0  0  0  0  0
  129.2919  132.6166  158.0383 N   0  0  0  0  0  0  0  0  0  0  0  0
  128.8265  132.5536  158.8871 H   0  0  0  0  0  0  0  0  0  0  0  0
  129.9477  133.7077  157.5577 C   0  0  0  0  0  0  0  0  0  0  0  0
  130.0645  134.9272  158.2025 N   0  0  0  0  0  0  0  0  0  0  0  0
  129.4508  135.1217  159.5185 C   0  0  1  0  0  0  0  0  0  0  0  0
  129.8739  134.4082  160.2257 H   0  0  0  0  0  0  0  0  0  0  0  0
  129.7266  136.5461  160.0044 C   0  0  0  0  0  0  0  0  0  0  0  0
  131.1210  136.6223  160.5709 C   0  0  0  0  0  0  0  0  0  0  0  0
  131.6580  137.7033  161.0679 C   0  0  0  0  0  0  0  0  0  0  0  0
  133.0655  137.4393  161.5500 C   0  0  0  0  0  0  0  0  0  0  0  0
  133.4650  136.1022  160.8839 C   0  0  0  0  0  0  0  0  0  0  0  0
  132.0788  135.4560  160.6439 C   0  0  0  0  0  0  0  0  0  0  0  0
  127.9629  134.9052  159.4158 C   0  0  0  0  0  0  0  0  0  0  0  0
  127.1507  134.0693  159.9878 C   0  0  0  0  0  0  0  0  0  0  0  0
  125.9354  134.5976  159.2886 C   0  0  0  0  0  0  0  0  0  0  0  0
  126.8871  135.5817  158.6221 C   0  0  0  0  0  0  0  0  0  0  0  0
  130.4458  133.4155  156.3809 N   0  0  0  0  0  0  0  0  0  0  0  0
  130.9564  134.0205  155.8204 H   0  0  0  0  0  0  0  0  0  0  0  0
  131.3011  130.2635  154.9030 C   0  0  0  0  0  0  0  0  0  0  0  0
  131.6496  129.5953  153.7482 C   0  0  0  0  0  0  0  0  0  0  0  0
  131.2980  129.7348  150.4815 H   0  0  0  0  0  0  0  0  0  0  0  0
  132.1320  128.5975  151.3947 H   0  0  0  0  0  0  0  0  0  0  0  0
  130.1301  131.5974  151.4783 H   0  0  0  0  0  0  0  0  0  0  0  0
  129.4948  132.7876  153.5339 H   0  0  0  0  0  0  0  0  0  0  0  0
  129.0056  130.6212  157.1653 H   0  0  0  0  0  0  0  0  0  0  0  0
  130.5525  135.6529  157.7829 H   0  0  0  0  0  0  0  0  0  0  0  0
  129.6359  137.2393  159.1681 H   0  0  0  0  0  0  0  0  0  0  0  0
  129.0055  136.8124  160.7770 H   0  0  0  0  0  0  0  0  0  0  0  0
  131.1616  138.6606  161.1266 H   0  0  0  0  0  0  0  0  0  0  0  0
  133.7334  138.2383  161.2278 H   0  0  0  0  0  0  0  0  0  0  0  0
  133.0834  137.3430  162.6354 H   0  0  0  0  0  0  0  0  0  0  0  0
  133.9886  136.2743  159.9436 H   0  0  0  0  0  0  0  0  0  0  0  0
  134.0667  135.4934  161.5585 H   0  0  0  0  0  0  0  0  0  0  0  0
  131.8147  134.7990  161.4727 H   0  0  0  0  0  0  0  0  0  0  0  0
  132.0765  134.9032  159.7044 H   0  0  0  0  0  0  0  0  0  0  0  0
  127.2980  133.2783  160.7083 H   0  0  0  0  0  0  0  0  0  0  0  0
  125.4791  133.8859  158.6004 H   0  0  0  0  0  0  0  0  0  0  0  0
  125.2141  135.0702  159.9553 H   0  0  0  0  0  0  0  0  0  0  0  0
  126.7169  136.6202  158.9063 H   0  0  0  0  0  0  0  0  0  0  0  0
  126.9812  135.4430  157.5451 H   0  0  0  0  0  0  0  0  0  0  0  0
  131.6308  129.8927  155.8624 H   0  0  0  0  0  0  0  0  0  0  0  0
  132.2528  128.7012  153.8032 H   0  0  0  0  0  0  0  0  0  0  0  0
  1  2  1  0
  1 28  1  0
  1 29  1  0
  2 27  2  0
  2  3  1  0
  3  4  2  0
  3 30  1  0
  4  5  1  0
  4 31  1  0
  5  6  1  0
  5 26  2  0
  6 24  1  0
  6  7  2  0
  7  8  1  0
  7 32  1  0
  8  9  1  0
  8 10  1  0
 10 11  1  0
 10 24  2  0
 11 12  1  0
 11 33  1  0
 12 13  1  1
 12 14  1  0
 12 20  1  0
 14 15  1  0
 14 34  1  0
 14 35  1  0
 15 19  1  0
 15 16  2  0
 16 17  1  0
 16 36  1  0
 17 18  1  0
 17 37  1  0
 17 38  1  0
 18 19  1  0
 18 39  1  0
 18 40  1  0
 19 41  1  0
 19 42  1  0
 20 23  1  0
 20 21  2  0
 21 22  1  0
 21 43  1  0
 22 23  1  0
 22 44  1  0
 22 45  1  0
 23 46  1  0
 23 47  1  0
 24 25  1  0
 26 27  1  0
 26 48  1  0
 27 49  1  0
M  CHG  1  24   1
M  END
>  <DOCK_score>  (1) 
-56.256966

>  <SMILES>  (1) 
Nc1ccc(-c2c[nH]c(N[C@@H](CC3=CCCC3)C3=CCC3)[nH+]2)cc1

$$$$
