C[C@@H](NC1=C([NH2+]CCn2c(=O)[nH]c3cccnc32)CCC1)c1cc2ccccc2[nH]1
     RDKit          3D

 57 61  0  0  1  0  0  0  0  0999 V2000
  130.2406  138.8795  160.6634 C   0  0  0  0  0  0  0  0  0  0  0  0
  131.3456  137.9555  161.1791 C   0  0  1  0  0  0  0  0  0  0  0  0
  131.1662  137.7252  162.2293 H   0  0  0  0  0  0  0  0  0  0  0  0
  131.3476  136.7145  160.4005 N   0  0  0  0  0  0  0  0  0  0  0  0
  131.9494  135.5730  160.9146 C   0  0  0  0  0  0  0  0  0  0  0  0
  131.5696  134.3430  160.6429 C   0  0  0  0  0  0  0  0  0  0  0  0
  130.5066  134.0100  159.7984 N   0  0  0  0  0  0  0  0  0  0  0  0
  129.6530  134.4091  160.1587 H   0  0  0  0  0  0  0  0  0  0  0  0
  130.6844  134.3743  158.8743 H   0  0  0  0  0  0  0  0  0  0  0  0
  130.3739  132.5485  159.7312 C   0  0  0  0  0  0  0  0  0  0  0  0
  129.2105  132.1840  158.8067 C   0  0  0  0  0  0  0  0  0  0  0  0
  129.4685  132.7131  157.4653 N   0  0  0  0  0  0  0  0  0  0  0  0
  129.1063  133.9297  157.0171 C   0  0  0  0  0  0  0  0  0  0  0  0
  128.5087  134.7666  157.6673 O   0  0  0  0  0  0  0  0  0  0  0  0
  129.5056  134.0796  155.7396 N   0  0  0  0  0  0  0  0  0  0  0  0
  129.3669  134.8658  155.1888 H   0  0  0  0  0  0  0  0  0  0  0  0
  130.1523  132.9116  155.3467 C   0  0  0  0  0  0  0  0  0  0  0  0
  130.7573  132.5017  154.1675 C   0  0  0  0  0  0  0  0  0  0  0  0
  131.3197  131.2346  154.1248 C   0  0  0  0  0  0  0  0  0  0  0  0
  131.2599  130.4288  155.2467 C   0  0  0  0  0  0  0  0  0  0  0  0
  130.6780  130.8436  156.3550 N   0  0  0  0  0  0  0  0  0  0  0  0
  130.1332  132.0461  156.4441 C   0  0  0  0  0  0  0  0  0  0  0  0
  132.4368  133.3383  161.3654 C   0  0  0  0  0  0  0  0  0  0  0  0
  133.1550  134.1550  162.4645 C   0  0  0  0  0  0  0  0  0  0  0  0
  133.1318  135.5776  161.8555 C   0  0  0  0  0  0  0  0  0  0  0  0
  132.6805  138.6403  161.0362 C   0  0  0  0  0  0  0  0  0  0  0  0
  133.2514  139.4185  161.9692 C   0  0  0  0  0  0  0  0  0  0  0  0
  134.5327  139.8719  161.4231 C   0  0  0  0  0  0  0  0  0  0  0  0
  135.5605  140.6843  161.9062 C   0  0  0  0  0  0  0  0  0  0  0  0
  136.6554  140.9285  161.1264 C   0  0  0  0  0  0  0  0  0  0  0  0
  136.7551  140.3743  159.8574 C   0  0  0  0  0  0  0  0  0  0  0  0
  135.7531  139.5697  159.3613 C   0  0  0  0  0  0  0  0  0  0  0  0
  134.6289  139.3082  160.1380 C   0  0  0  0  0  0  0  0  0  0  0  0
  133.4874  138.5656  159.9336 N   0  0  0  0  0  0  0  0  0  0  0  0
  133.2856  138.0644  159.1282 H   0  0  0  0  0  0  0  0  0  0  0  0
  130.2391  139.8028  161.2427 H   0  0  0  0  0  0  0  0  0  0  0  0
  130.4202  139.1098  159.6132 H   0  0  0  0  0  0  0  0  0  0  0  0
  129.2752  138.3841  160.7668 H   0  0  0  0  0  0  0  0  0  0  0  0
  130.9252  136.6889  159.5276 H   0  0  0  0  0  0  0  0  0  0  0  0
  131.2962  132.1173  159.3418 H   0  0  0  0  0  0  0  0  0  0  0  0
  130.1819  132.1549  160.7293 H   0  0  0  0  0  0  0  0  0  0  0  0
  129.1119  131.0996  158.7569 H   0  0  0  0  0  0  0  0  0  0  0  0
  128.2882  132.6152  159.1962 H   0  0  0  0  0  0  0  0  0  0  0  0
  130.7894  133.1518  153.3057 H   0  0  0  0  0  0  0  0  0  0  0  0
  131.7997  130.8810  153.2243 H   0  0  0  0  0  0  0  0  0  0  0  0
  131.6974  129.4420  155.2147 H   0  0  0  0  0  0  0  0  0  0  0  0
  131.8214  132.5583  161.8134 H   0  0  0  0  0  0  0  0  0  0  0  0
  133.1641  132.9025  160.6804 H   0  0  0  0  0  0  0  0  0  0  0  0
  132.6016  134.1185  163.4027 H   0  0  0  0  0  0  0  0  0  0  0  0
  134.1789  133.8079  162.6033 H   0  0  0  0  0  0  0  0  0  0  0  0
  134.0529  135.7732  161.3067 H   0  0  0  0  0  0  0  0  0  0  0  0
  132.9904  136.3223  162.6390 H   0  0  0  0  0  0  0  0  0  0  0  0
  132.8440  139.6622  162.9393 H   0  0  0  0  0  0  0  0  0  0  0  0
  135.4901  141.1184  162.8926 H   0  0  0  0  0  0  0  0  0  0  0  0
  137.4501  141.5571  161.5004 H   0  0  0  0  0  0  0  0  0  0  0  0
  137.6273  140.5760  159.2530 H   0  0  0  0  0  0  0  0  0  0  0  0
  135.8401  139.1431  158.3730 H   0  0  0  0  0  0  0  0  0  0  0  0
  1  2  1  0
  1 36  1  0
  1 37  1  0
  1 38  1  0
  2  3  1  1
  2  4  1  0
  2 26  1  0
  4  5  1  0
  4 39  1  0
  5 25  1  0
  5  6  2  0
  6  7  1  0
  6 23  1  0
  7  8  1  0
  7  9  1  0
  7 10  1  0
 10 11  1  0
 10 40  1  0
 10 41  1  0
 11 12  1  0
 11 42  1  0
 11 43  1  0
 12 22  1  0
 12 13  1  0
 13 14  2  0
 13 15  1  0
 15 16  1  0
 15 17  1  0
 17 22  2  0
 17 18  1  0
 18 19  2  0
 18 44  1  0
 19 20  1  0
 19 45  1  0
 20 21  2  0
 20 46  1  0
 21 22  1  0
 23 24  1  0
 23 47  1  0
 23 48  1  0
 24 25  1  0
 24 49  1  0
 24 50  1  0
 25 51  1  0
 25 52  1  0
 26 34  1  0
 26 27  2  0
 27 28  1  0
 27 53  1  0
 28 33  2  0
 28 29  1  0
 29 30  2  0
 29 54  1  0
 30 31  1  0
 30 55  1  0
 31 32  2  0
 31 56  1  0
 32 33  1  0
 32 57  1  0
 33 34  1  0
 34 35  1  0
M  CHG  1   7   1
M  END
>  <DOCK_score>  (1) 
-59.466499

>  <SMILES>  (1) 
C[C@@H](NC1=C([NH2+]CCn2c(=O)[nH]c3cccnc32)CCC1)c1cc2ccccc2[nH]1

$$$$
