Nc1ccc(-c2c[nH]c(N[C@H](CCC3=CCCCC3)Cc3ccccn3)[nH+]2)cc1
     RDKit          3D

 59 62  0  0  1  0  0  0  0  0999 V2000
  130.2124  129.3974  151.6448 N   0  0  0  0  0  0  0  0  0  0  0  0
  130.4334  129.9299  152.9173 C   0  0  0  0  0  0  0  0  0  0  0  0
  129.6483  130.9811  153.3755 C   0  0  0  0  0  0  0  0  0  0  0  0
  129.8647  131.5082  154.6313 C   0  0  0  0  0  0  0  0  0  0  0  0
  130.8717  130.9856  155.4414 C   0  0  0  0  0  0  0  0  0  0  0  0
  131.1064  131.5510  156.7927 C   0  0  0  0  0  0  0  0  0  0  0  0
  131.5771  130.8750  157.8696 C   0  0  0  0  0  0  0  0  0  0  0  0
  131.6414  131.7741  158.9078 N   0  0  0  0  0  0  0  0  0  0  0  0
  131.9409  131.5880  159.8114 H   0  0  0  0  0  0  0  0  0  0  0  0
  131.2075  132.9733  158.4332 C   0  0  0  0  0  0  0  0  0  0  0  0
  131.1176  134.1452  159.1647 N   0  0  0  0  0  0  0  0  0  0  0  0
  130.8557  134.0912  160.6052 C   0  0  2  0  0  0  0  0  0  0  0  0
  131.6517  133.5334  161.0984 H   0  0  0  0  0  0  0  0  0  0  0  0
  129.5157  133.3959  160.8542 C   0  0  0  0  0  0  0  0  0  0  0  0
  128.3985  134.1788  160.1618 C   0  0  0  0  0  0  0  0  0  0  0  0
  127.0787  133.4939  160.4071 C   0  0  0  0  0  0  0  0  0  0  0  0
  126.1528  134.1613  161.0178 C   0  0  0  0  0  0  0  0  0  0  0  0
  124.7928  133.6135  161.3368 C   0  0  0  0  0  0  0  0  0  0  0  0
  124.5180  132.3616  160.5009 C   0  0  0  0  0  0  0  0  0  0  0  0
  125.7241  131.4218  160.6236 C   0  0  0  0  0  0  0  0  0  0  0  0
  126.9216  132.0786  159.9336 C   0  0  0  0  0  0  0  0  0  0  0  0
  130.8050  135.5132  161.1679 C   0  0  0  0  0  0  0  0  0  0  0  0
  132.2083  136.0215  161.3757 C   0  0  0  0  0  0  0  0  0  0  0  0
  132.8411  135.8049  162.5853 C   0  0  0  0  0  0  0  0  0  0  0  0
  134.1322  136.2762  162.7662 C   0  0  0  0  0  0  0  0  0  0  0  0
  134.7411  136.9511  161.7189 C   0  0  0  0  0  0  0  0  0  0  0  0
  134.0458  137.1301  160.5383 C   0  0  0  0  0  0  0  0  0  0  0  0
  132.8202  136.6633  160.4000 N   0  0  0  0  0  0  0  0  0  0  0  0
  130.8835  132.8347  157.1706 N   0  0  0  0  0  0  0  0  0  0  0  0
  130.5411  133.5383  156.5975 H   0  0  0  0  0  0  0  0  0  0  0  0
  131.6616  129.9349  154.9773 C   0  0  0  0  0  0  0  0  0  0  0  0
  131.4377  129.4069  153.7234 C   0  0  0  0  0  0  0  0  0  0  0  0
  129.5114  129.7616  151.0817 H   0  0  0  0  0  0  0  0  0  0  0  0
  130.7599  128.6636  151.3242 H   0  0  0  0  0  0  0  0  0  0  0  0
  128.8685  131.3859  152.7475 H   0  0  0  0  0  0  0  0  0  0  0  0
  129.2542  132.3249  154.9871 H   0  0  0  0  0  0  0  0  0  0  0  0
  131.8492  129.8305  157.9053 H   0  0  0  0  0  0  0  0  0  0  0  0
  131.2278  135.0021  158.7236 H   0  0  0  0  0  0  0  0  0  0  0  0
  129.5522  132.3830  160.4532 H   0  0  0  0  0  0  0  0  0  0  0  0
  129.3210  133.3557  161.9259 H   0  0  0  0  0  0  0  0  0  0  0  0
  128.3623  135.1918  160.5627 H   0  0  0  0  0  0  0  0  0  0  0  0
  128.5932  134.2190  159.0901 H   0  0  0  0  0  0  0  0  0  0  0  0
  126.3717  135.1769  161.3130 H   0  0  0  0  0  0  0  0  0  0  0  0
  124.0365  134.3673  161.1178 H   0  0  0  0  0  0  0  0  0  0  0  0
  124.7490  133.3577  162.3955 H   0  0  0  0  0  0  0  0  0  0  0  0
  124.3765  132.6418  159.4571 H   0  0  0  0  0  0  0  0  0  0  0  0
  123.6234  131.8598  160.8699 H   0  0  0  0  0  0  0  0  0  0  0  0
  125.4987  130.4713  160.1402 H   0  0  0  0  0  0  0  0  0  0  0  0
  125.9535  131.2557  161.6762 H   0  0  0  0  0  0  0  0  0  0  0  0
  126.7644  132.0739  158.8549 H   0  0  0  0  0  0  0  0  0  0  0  0
  127.8251  131.5163  160.1695 H   0  0  0  0  0  0  0  0  0  0  0  0
  130.2832  136.1634  160.4657 H   0  0  0  0  0  0  0  0  0  0  0  0
  130.2756  135.5081  162.1207 H   0  0  0  0  0  0  0  0  0  0  0  0
  132.3361  135.2752  163.3795 H   0  0  0  0  0  0  0  0  0  0  0  0
  134.6516  136.1212  163.7003 H   0  0  0  0  0  0  0  0  0  0  0  0
  135.7463  137.3317  161.8247 H   0  0  0  0  0  0  0  0  0  0  0  0
  134.5130  137.6546  159.7179 H   0  0  0  0  0  0  0  0  0  0  0  0
  132.4453  129.5314  155.6015 H   0  0  0  0  0  0  0  0  0  0  0  0
  132.0465  128.5900  153.3651 H   0  0  0  0  0  0  0  0  0  0  0  0
  1  2  1  0
  1 33  1  0
  1 34  1  0
  2 32  2  0
  2  3  1  0
  3  4  2  0
  3 35  1  0
  4  5  1  0
  4 36  1  0
  5  6  1  0
  5 31  2  0
  6 29  1  0
  6  7  2  0
  7  8  1  0
  7 37  1  0
  8  9  1  0
  8 10  1  0
 10 11  1  0
 10 29  2  0
 11 12  1  0
 11 38  1  0
 12 13  1  1
 12 14  1  0
 12 22  1  0
 14 15  1  0
 14 39  1  0
 14 40  1  0
 15 16  1  0
 15 41  1  0
 15 42  1  0
 16 21  1  0
 16 17  2  0
 17 18  1  0
 17 43  1  0
 18 19  1  0
 18 44  1  0
 18 45  1  0
 19 20  1  0
 19 46  1  0
 19 47  1  0
 20 21  1  0
 20 48  1  0
 20 49  1  0
 21 50  1  0
 21 51  1  0
 22 23  1  0
 22 52  1  0
 22 53  1  0
 23 28  1  0
 23 24  2  0
 24 25  1  0
 24 54  1  0
 25 26  2  0
 25 55  1  0
 26 27  1  0
 26 56  1  0
 27 28  2  0
 27 57  1  0
 29 30  1  0
 31 32  1  0
 31 58  1  0
 32 59  1  0
M  CHG  1  29   1
M  END
>  <DOCK_score>  (1) 
-56.541386

>  <SMILES>  (1) 
Nc1ccc(-c2c[nH]c(N[C@H](CCC3=CCCCC3)Cc3ccccn3)[nH+]2)cc1

$$$$
