C=C(C)Nc1ccc(-c2c[nH]c(N[C@@H](c3ccnn3C)C(F)F)[nH+]2)cc1
     RDKit          3D

 47 49  0  0  1  0  0  0  0  0999 V2000
  131.2514  129.8788  149.6534 C   0  0  0  0  0  0  0  0  0  0  0  0
  130.7517  129.9438  150.8737 C   0  0  0  0  0  0  0  0  0  0  0  0
  129.2678  130.1171  151.0720 C   0  0  0  0  0  0  0  0  0  0  0  0
  131.5938  129.8524  151.9750 N   0  0  0  0  0  0  0  0  0  0  0  0
  131.2624  130.5071  153.1640 C   0  0  0  0  0  0  0  0  0  0  0  0
  131.0865  129.7755  154.3331 C   0  0  0  0  0  0  0  0  0  0  0  0
  130.7584  130.4190  155.5074 C   0  0  0  0  0  0  0  0  0  0  0  0
  130.6032  131.8044  155.5219 C   0  0  0  0  0  0  0  0  0  0  0  0
  130.2502  132.4991  156.7843 C   0  0  0  0  0  0  0  0  0  0  0  0
  129.5197  131.9815  157.8026 C   0  0  0  0  0  0  0  0  0  0  0  0
  129.4340  132.9568  158.7677 N   0  0  0  0  0  0  0  0  0  0  0  0
  128.9727  132.8848  159.6180 H   0  0  0  0  0  0  0  0  0  0  0  0
  130.1154  134.0418  158.3095 C   0  0  0  0  0  0  0  0  0  0  0  0
  130.2701  135.2407  158.9843 N   0  0  0  0  0  0  0  0  0  0  0  0
  129.6719  135.4177  160.3098 C   0  0  1  0  0  0  0  0  0  0  0  0
  128.5914  135.2920  160.2408 H   0  0  0  0  0  0  0  0  0  0  0  0
  130.2375  134.3913  161.2574 C   0  0  0  0  0  0  0  0  0  0  0  0
  129.5326  133.4510  161.9282 C   0  0  0  0  0  0  0  0  0  0  0  0
  130.4330  132.7034  162.6942 C   0  0  0  0  0  0  0  0  0  0  0  0
  131.6342  133.1830  162.4967 N   0  0  0  0  0  0  0  0  0  0  0  0
  131.5366  134.2492  161.5933 N   0  0  0  0  0  0  0  0  0  0  0  0
  132.6487  135.0659  161.1009 C   0  0  0  0  0  0  0  0  0  0  0  0
  129.9898  136.8212  160.8296 C   0  0  0  0  0  0  0  0  0  0  0  0
  131.3080  137.1535  160.4990 F   0  0  0  0  0  0  0  0  0  0  0  0
  129.1157  137.7440  160.2451 F   0  0  0  0  0  0  0  0  0  0  0  0
  130.6016  133.7646  157.1243 N   0  0  0  0  0  0  0  0  0  0  0  0
  131.1289  134.3678  156.5776 H   0  0  0  0  0  0  0  0  0  0  0  0
  130.7747  132.5354  154.3474 C   0  0  0  0  0  0  0  0  0  0  0  0
  131.1081  131.8884  153.1764 C   0  0  0  0  0  0  0  0  0  0  0  0
  132.3149  129.7546  149.5113 H   0  0  0  0  0  0  0  0  0  0  0  0
  130.5969  129.9499  148.7973 H   0  0  0  0  0  0  0  0  0  0  0  0
  129.0256  131.1797  151.0921 H   0  0  0  0  0  0  0  0  0  0  0  0
  128.7333  129.6380  150.2519 H   0  0  0  0  0  0  0  0  0  0  0  0
  128.9715  129.6590  152.0157 H   0  0  0  0  0  0  0  0  0  0  0  0
  132.4120  129.3345  151.9184 H   0  0  0  0  0  0  0  0  0  0  0  0
  131.2067  128.7022  154.3214 H   0  0  0  0  0  0  0  0  0  0  0  0
  130.6219  129.8504  156.4154 H   0  0  0  0  0  0  0  0  0  0  0  0
  129.0912  130.9912  157.8487 H   0  0  0  0  0  0  0  0  0  0  0  0
  130.7744  135.9635  158.5794 H   0  0  0  0  0  0  0  0  0  0  0  0
  128.4641  133.3025  161.8790 H   0  0  0  0  0  0  0  0  0  0  0  0
  130.1798  131.8759  163.3404 H   0  0  0  0  0  0  0  0  0  0  0  0
  132.8434  135.8760  161.8035 H   0  0  0  0  0  0  0  0  0  0  0  0
  133.5400  134.4460  161.0049 H   0  0  0  0  0  0  0  0  0  0  0  0
  132.3898  135.4831  160.1278 H   0  0  0  0  0  0  0  0  0  0  0  0
  129.8703  136.8433  161.9128 H   0  0  0  0  0  0  0  0  0  0  0  0
  130.6507  133.6083  154.3554 H   0  0  0  0  0  0  0  0  0  0  0  0
  131.2454  132.4547  152.2670 H   0  0  0  0  0  0  0  0  0  0  0  0
  1  2  2  0
  1 30  1  0
  1 31  1  0
  2  3  1  0
  2  4  1  0
  3 32  1  0
  3 33  1  0
  3 34  1  0
  4  5  1  0
  4 35  1  0
  5 29  2  0
  5  6  1  0
  6  7  2  0
  6 36  1  0
  7  8  1  0
  7 37  1  0
  8  9  1  0
  8 28  2  0
  9 26  1  0
  9 10  2  0
 10 11  1  0
 10 38  1  0
 11 12  1  0
 11 13  1  0
 13 14  1  0
 13 26  2  0
 14 15  1  0
 14 39  1  0
 15 16  1  6
 15 17  1  0
 15 23  1  0
 17 21  1  0
 17 18  2  0
 18 19  1  0
 18 40  1  0
 19 20  2  0
 19 41  1  0
 20 21  1  0
 21 22  1  0
 22 42  1  0
 22 43  1  0
 22 44  1  0
 23 24  1  0
 23 25  1  0
 23 45  1  0
 26 27  1  0
 28 29  1  0
 28 46  1  0
 29 47  1  0
M  CHG  1  26   1
M  END
>  <DOCK_score>  (1) 
-56.564102

>  <SMILES>  (1) 
C=C(C)Nc1ccc(-c2c[nH]c(N[C@@H](c3ccnn3C)C(F)F)[nH+]2)cc1

$$$$
