C[C@@H]1CC1[NH+]=C(NC1CCC1)NC1CCC(=O)NC1
     RDKit          3D

 44 46  0  0  1  0  0  0  0  0999 V2000
  132.1409  137.7473  160.4702 C   0  0  0  0  0  0  0  0  0  0  0  0
  132.3056  136.5354  161.3894 C   0  0  2  0  0  0  0  0  0  0  0  0
  132.2794  136.7488  162.4579 H   0  0  0  0  0  0  0  0  0  0  0  0
  133.2280  135.4100  160.9162 C   0  0  0  0  0  0  0  0  0  0  0  0
  131.7117  135.2060  160.9196 C   0  0  2  0  0  0  0  0  0  0  0  0
  131.0282  135.1907  159.6239 N   0  0  0  0  0  0  0  0  0  0  0  0
  131.5115  135.4307  158.8178 H   0  0  0  0  0  0  0  0  0  0  0  0
  129.7708  134.8547  159.5543 C   0  0  0  0  0  0  0  0  0  0  0  0
  129.2828  134.2492  158.4206 N   0  0  0  0  0  0  0  0  0  0  0  0
  130.1601  133.4053  157.6054 C   0  0  0  0  0  0  0  0  0  0  0  0
  129.4022  132.3909  156.7328 C   0  0  0  0  0  0  0  0  0  0  0  0
  130.5063  131.3804  157.0865 C   0  0  0  0  0  0  0  0  0  0  0  0
  130.7374  132.2004  158.3669 C   0  0  0  0  0  0  0  0  0  0  0  0
  128.9324  135.1059  160.6145 N   0  0  0  0  0  0  0  0  0  0  0  0
  127.5190  134.7283  160.5363 C   0  0  1  0  0  0  0  0  0  0  0  0
  127.3355  133.3063  161.0799 C   0  0  0  0  0  0  0  0  0  0  0  0
  125.8913  132.8713  160.8190 C   0  0  0  0  0  0  0  0  0  0  0  0
  124.9442  133.9436  161.2756 C   0  0  0  0  0  0  0  0  0  0  0  0
  123.7808  133.6470  161.4465 O   0  0  0  0  0  0  0  0  0  0  0  0
  125.3142  135.2044  161.5034 N   0  0  0  0  0  0  0  0  0  0  0  0
  126.6833  135.6909  161.3811 C   0  0  0  0  0  0  0  0  0  0  0  0
  132.6141  137.5421  159.5099 H   0  0  0  0  0  0  0  0  0  0  0  0
  131.0802  137.9460  160.3175 H   0  0  0  0  0  0  0  0  0  0  0  0
  132.6111  138.6174  160.9285 H   0  0  0  0  0  0  0  0  0  0  0  0
  133.7171  135.5330  159.9499 H   0  0  0  0  0  0  0  0  0  0  0  0
  133.8087  134.8834  161.6735 H   0  0  0  0  0  0  0  0  0  0  0  0
  131.2946  134.5447  161.6792 H   0  0  0  0  0  0  0  0  0  0  0  0
  128.3577  134.3807  158.1604 H   0  0  0  0  0  0  0  0  0  0  0  0
  130.9107  133.9775  157.0601 H   0  0  0  0  0  0  0  0  0  0  0  0
  128.4220  132.1223  157.1268 H   0  0  0  0  0  0  0  0  0  0  0  0
  129.3763  132.6572  155.6762 H   0  0  0  0  0  0  0  0  0  0  0  0
  131.3512  131.3984  156.3982 H   0  0  0  0  0  0  0  0  0  0  0  0
  130.1330  130.3737  157.2741 H   0  0  0  0  0  0  0  0  0  0  0  0
  131.7892  132.3130  158.6294 H   0  0  0  0  0  0  0  0  0  0  0  0
  130.1228  131.8807  159.2085 H   0  0  0  0  0  0  0  0  0  0  0  0
  129.2766  135.5332  161.4145 H   0  0  0  0  0  0  0  0  0  0  0  0
  127.1865  134.7691  159.4990 H   0  0  0  0  0  0  0  0  0  0  0  0
  128.0207  132.6279  160.5717 H   0  0  0  0  0  0  0  0  0  0  0  0
  127.5343  133.2946  162.1516 H   0  0  0  0  0  0  0  0  0  0  0  0
  125.7530  132.6962  159.7522 H   0  0  0  0  0  0  0  0  0  0  0  0
  125.6858  131.9514  161.3665 H   0  0  0  0  0  0  0  0  0  0  0  0
  124.6288  135.8391  161.7646 H   0  0  0  0  0  0  0  0  0  0  0  0
  127.1240  135.7738  162.3746 H   0  0  0  0  0  0  0  0  0  0  0  0
  126.6788  136.6734  160.9093 H   0  0  0  0  0  0  0  0  0  0  0  0
  1  2  1  0
  1 22  1  0
  1 23  1  0
  1 24  1  0
  2  3  1  1
  2  5  1  0
  2  4  1  0
  4  5  1  0
  4 25  1  0
  4 26  1  0
  5  6  1  0
  5 27  1  1
  6  7  1  0
  8  6  2  0
  8  9  1  0
  8 14  1  0
  9 10  1  0
  9 28  1  0
 10 13  1  0
 10 11  1  0
 10 29  1  0
 11 12  1  0
 11 30  1  0
 11 31  1  0
 12 13  1  0
 12 32  1  0
 12 33  1  0
 13 34  1  0
 13 35  1  0
 14 15  1  0
 14 36  1  0
 15 21  1  0
 15 16  1  0
 15 37  1  6
 16 17  1  0
 16 38  1  0
 16 39  1  0
 17 18  1  0
 17 40  1  0
 17 41  1  0
 18 19  2  0
 18 20  1  0
 20 21  1  0
 20 42  1  0
 21 43  1  0
 21 44  1  0
M  CHG  1   6   1
M  END
>  <DOCK_score>  (1) 
-44.054199

>  <SMILES>  (1) 
C[C@@H]1CC1[NH+]=C(NC1CCC1)NC1CCC(=O)NC1

$$$$
