Cc1ccccc1CC(C)Nc1ccc(C[N@@H+](C)C2c3cc(O)ccc3-c3ccc(O)cc32)cc1
     RDKit          3D

 68 72  0  0  1  0  0  0  0  0999 V2000
  134.9127  141.3339  161.8557 C   0  0  0  0  0  0  0  0  0  0  0  0
  134.8604  139.9038  162.3280 C   0  0  0  0  0  0  0  0  0  0  0  0
  135.8360  139.0083  161.9304 C   0  0  0  0  0  0  0  0  0  0  0  0
  135.7854  137.6955  162.3598 C   0  0  0  0  0  0  0  0  0  0  0  0
  134.7614  137.2787  163.1899 C   0  0  0  0  0  0  0  0  0  0  0  0
  133.7885  138.1749  163.5910 C   0  0  0  0  0  0  0  0  0  0  0  0
  133.8397  139.4883  163.1622 C   0  0  0  0  0  0  0  0  0  0  0  0
  132.7790  140.4655  163.5993 C   0  0  0  0  0  0  0  0  0  0  0  0
  131.6231  140.4456  162.5973 C   0  0  2  0  0  0  0  0  0  0  0  0
  130.8081  141.7334  162.7332 C   0  0  0  0  0  0  0  0  0  0  0  0
  130.7617  139.2919  162.8682 N   0  0  0  0  0  0  0  0  0  0  0  0
  130.5680  138.3189  161.8851 C   0  0  0  0  0  0  0  0  0  0  0  0
  130.0102  138.6671  160.6614 C   0  0  0  0  0  0  0  0  0  0  0  0
  129.8244  137.7033  159.6897 C   0  0  0  0  0  0  0  0  0  0  0  0
  130.1834  136.3911  159.9377 C   0  0  0  0  0  0  0  0  0  0  0  0
  129.9735  135.3411  158.8773 C   0  0  0  0  0  0  0  0  0  0  0  0
  128.6387  134.7478  159.0331 N   0  0  1  0  0  0  0  0  0  0  0  0
  127.9744  135.4709  159.2657 H   0  0  0  0  0  0  0  0  0  0  0  0
  128.2397  134.1026  157.7750 C   0  0  0  0  0  0  0  0  0  0  0  0
  128.6699  133.7472  160.1080 C   0  0  0  0  0  0  0  0  0  0  0  0
  129.1745  132.4283  159.5757 C   0  0  0  0  0  0  0  0  0  0  0  0
  130.3672  132.0604  158.9944 C   0  0  0  0  0  0  0  0  0  0  0  0
  130.5665  130.7478  158.5878 C   0  0  0  0  0  0  0  0  0  0  0  0
  131.7444  130.3851  158.0153 O   0  0  0  0  0  0  0  0  0  0  0  0
  129.5623  129.8060  158.7666 C   0  0  0  0  0  0  0  0  0  0  0  0
  128.3663  130.1695  159.3468 C   0  0  0  0  0  0  0  0  0  0  0  0
  128.1609  131.4886  159.7576 C   0  0  0  0  0  0  0  0  0  0  0  0
  126.9917  132.1403  160.3980 C   0  0  0  0  0  0  0  0  0  0  0  0
  125.7500  131.6275  160.7808 C   0  0  0  0  0  0  0  0  0  0  0  0
  124.8151  132.4515  161.3691 C   0  0  0  0  0  0  0  0  0  0  0  0
  125.1029  133.7927  161.5838 C   0  0  0  0  0  0  0  0  0  0  0  0
  124.1782  134.6016  162.1646 O   0  0  0  0  0  0  0  0  0  0  0  0
  126.3352  134.3074  161.2040 C   0  0  0  0  0  0  0  0  0  0  0  0
  127.2729  133.4865  160.6160 C   0  0  0  0  0  0  0  0  0  0  0  0
  130.7342  136.0400  161.1566 C   0  0  0  0  0  0  0  0  0  0  0  0
  130.9274  136.9997  162.1308 C   0  0  0  0  0  0  0  0  0  0  0  0
  135.4932  141.9285  162.5610 H   0  0  0  0  0  0  0  0  0  0  0  0
  135.3825  141.3750  160.8730 H   0  0  0  0  0  0  0  0  0  0  0  0
  133.9003  141.7325  161.7913 H   0  0  0  0  0  0  0  0  0  0  0  0
  136.6361  139.3340  161.2822 H   0  0  0  0  0  0  0  0  0  0  0  0
  136.5459  136.9955  162.0471 H   0  0  0  0  0  0  0  0  0  0  0  0
  134.7217  136.2529  163.5256 H   0  0  0  0  0  0  0  0  0  0  0  0
  132.9886  137.8494  164.2394 H   0  0  0  0  0  0  0  0  0  0  0  0
  133.2045  141.4681  163.6433 H   0  0  0  0  0  0  0  0  0  0  0  0
  132.4098  140.1840  164.5856 H   0  0  0  0  0  0  0  0  0  0  0  0
  132.0208  140.3724  161.5851 H   0  0  0  0  0  0  0  0  0  0  0  0
  130.4103  141.8067  163.7452 H   0  0  0  0  0  0  0  0  0  0  0  0
  131.4489  142.5918  162.5316 H   0  0  0  0  0  0  0  0  0  0  0  0
  129.9845  141.7192  162.0191 H   0  0  0  0  0  0  0  0  0  0  0  0
  130.3229  139.2057  163.7288 H   0  0  0  0  0  0  0  0  0  0  0  0
  129.7255  139.6909  160.4688 H   0  0  0  0  0  0  0  0  0  0  0  0
  129.3945  137.9742  158.7367 H   0  0  0  0  0  0  0  0  0  0  0  0
  130.0548  135.7989  157.8915 H   0  0  0  0  0  0  0  0  0  0  0  0
  130.7308  134.5640  158.9805 H   0  0  0  0  0  0  0  0  0  0  0  0
  127.3078  133.5578  157.9256 H   0  0  0  0  0  0  0  0  0  0  0  0
  128.0963  134.8624  157.0066 H   0  0  0  0  0  0  0  0  0  0  0  0
  129.0191  133.4091  157.4593 H   0  0  0  0  0  0  0  0  0  0  0  0
  129.3073  134.0917  160.9225 H   0  0  0  0  0  0  0  0  0  0  0  0
  131.1480  132.7934  158.8551 H   0  0  0  0  0  0  0  0  0  0  0  0
  132.3811  131.1085  157.9335 H   0  0  0  0  0  0  0  0  0  0  0  0
  129.7188  128.7854  158.4499 H   0  0  0  0  0  0  0  0  0  0  0  0
  127.5875  129.4340  159.4843 H   0  0  0  0  0  0  0  0  0  0  0  0
  125.5226  130.5847  160.6158 H   0  0  0  0  0  0  0  0  0  0  0  0
  123.8559  132.0527  161.6646 H   0  0  0  0  0  0  0  0  0  0  0  0
  124.4691  135.5174  162.2724 H   0  0  0  0  0  0  0  0  0  0  0  0
  126.5593  135.3506  161.3708 H   0  0  0  0  0  0  0  0  0  0  0  0
  131.0138  135.0145  161.3468 H   0  0  0  0  0  0  0  0  0  0  0  0
  131.3573  136.7250  163.0826 H   0  0  0  0  0  0  0  0  0  0  0  0
  1  2  1  0
  1 37  1  0
  1 38  1  0
  1 39  1  0
  2  7  2  0
  2  3  1  0
  3  4  2  0
  3 40  1  0
  4  5  1  0
  4 41  1  0
  5  6  2  0
  5 42  1  0
  6  7  1  0
  6 43  1  0
  7  8  1  0
  8  9  1  0
  8 44  1  0
  8 45  1  0
  9 10  1  0
  9 11  1  0
  9 46  1  6
 10 47  1  0
 10 48  1  0
 10 49  1  0
 11 12  1  0
 11 50  1  0
 12 36  1  0
 12 13  2  0
 13 14  1  0
 13 51  1  0
 14 15  2  0
 14 52  1  0
 15 16  1  0
 15 35  1  0
 16 17  1  0
 16 53  1  0
 16 54  1  0
 17 18  1  1
 17 19  1  0
 17 20  1  0
 19 55  1  0
 19 56  1  0
 19 57  1  0
 20 34  1  0
 20 21  1  0
 20 58  1  0
 21 27  1  0
 21 22  2  0
 22 23  1  0
 22 59  1  0
 23 24  1  0
 23 25  2  0
 24 60  1  0
 25 26  1  0
 25 61  1  0
 26 27  2  0
 26 62  1  0
 27 28  1  0
 28 34  2  0
 28 29  1  0
 29 30  2  0
 29 63  1  0
 30 31  1  0
 30 64  1  0
 31 32  1  0
 31 33  2  0
 32 65  1  0
 33 34  1  0
 33 66  1  0
 35 36  2  0
 35 67  1  0
 36 68  1  0
M  CHG  1  17   1
M  END
>  <DOCK_score>  (1) 
-46.427364

>  <SMILES>  (1) 
Cc1ccccc1CC(C)Nc1ccc(C[N@@H+](C)C2c3cc(O)ccc3-c3ccc(O)cc32)cc1

$$$$
