O=C1CC[C@H](NC(NC2CCCCCC2)=[NH+]C2CSC2)CN1
     RDKit          3D

 51 53  0  0  1  0  0  0  0  0999 V2000
  123.7481  134.1119  161.3704 O   0  0  0  0  0  0  0  0  0  0  0  0
  124.9414  134.3009  161.2646 C   0  0  0  0  0  0  0  0  0  0  0  0
  125.8019  133.1645  160.7921 C   0  0  0  0  0  0  0  0  0  0  0  0
  127.2673  133.4431  161.1354 C   0  0  0  0  0  0  0  0  0  0  0  0
  127.6111  134.8651  160.6757 C   0  0  2  0  0  0  0  0  0  0  0  0
  127.3323  134.9913  159.6296 H   0  0  0  0  0  0  0  0  0  0  0  0
  129.0488  135.0983  160.8328 N   0  0  0  0  0  0  0  0  0  0  0  0
  129.9095  134.8056  159.8014 C   0  0  0  0  0  0  0  0  0  0  0  0
  129.4208  134.2940  158.6226 N   0  0  0  0  0  0  0  0  0  0  0  0
  130.2509  133.3988  157.8128 C   0  0  0  0  0  0  0  0  0  0  0  0
  129.4861  133.0394  156.5225 C   0  0  0  0  0  0  0  0  0  0  0  0
  130.4788  132.5721  155.4926 C   0  0  0  0  0  0  0  0  0  0  0  0
  130.6409  131.0400  155.4827 C   0  0  0  0  0  0  0  0  0  0  0  0
  130.6872  130.4349  156.8989 C   0  0  0  0  0  0  0  0  0  0  0  0
  131.5190  131.2541  157.8482 C   0  0  0  0  0  0  0  0  0  0  0  0
  130.5876  132.2243  158.6035 C   0  0  0  0  0  0  0  0  0  0  0  0
  131.1886  135.0132  159.9412 N   0  0  0  0  0  0  0  0  0  0  0  0
  131.7959  134.8066  159.2135 H   0  0  0  0  0  0  0  0  0  0  0  0
  131.7093  135.5585  161.1973 C   0  0  0  0  0  0  0  0  0  0  0  0
  131.2153  137.0213  161.4132 C   0  0  0  0  0  0  0  0  0  0  0  0
  132.9000  137.2339  162.0977 S   0  0  0  0  0  0  0  0  0  0  0  0
  133.2592  135.7201  161.1326 C   0  0  0  0  0  0  0  0  0  0  0  0
  126.8328  135.8600  161.5377 C   0  0  0  0  0  0  0  0  0  0  0  0
  125.4191  135.5070  161.5736 N   0  0  0  0  0  0  0  0  0  0  0  0
  125.4846  132.2429  161.2801 H   0  0  0  0  0  0  0  0  0  0  0  0
  125.6973  133.0556  159.7126 H   0  0  0  0  0  0  0  0  0  0  0  0
  127.9074  132.7263  160.6210 H   0  0  0  0  0  0  0  0  0  0  0  0
  127.4137  133.3600  162.2122 H   0  0  0  0  0  0  0  0  0  0  0  0
  129.3936  135.4592  161.6645 H   0  0  0  0  0  0  0  0  0  0  0  0
  128.5265  134.5257  158.3270 H   0  0  0  0  0  0  0  0  0  0  0  0
  131.1705  133.9184  157.5432 H   0  0  0  0  0  0  0  0  0  0  0  0
  128.7716  132.2428  156.7302 H   0  0  0  0  0  0  0  0  0  0  0  0
  128.9603  133.9189  156.1514 H   0  0  0  0  0  0  0  0  0  0  0  0
  131.4464  133.0278  155.7033 H   0  0  0  0  0  0  0  0  0  0  0  0
  130.1448  132.8978  154.5076 H   0  0  0  0  0  0  0  0  0  0  0  0
  131.5649  130.7877  154.9623 H   0  0  0  0  0  0  0  0  0  0  0  0
  129.8035  130.6014  154.9402 H   0  0  0  0  0  0  0  0  0  0  0  0
  131.1062  129.4304  156.8395 H   0  0  0  0  0  0  0  0  0  0  0  0
  129.6710  130.3686  157.2873 H   0  0  0  0  0  0  0  0  0  0  0  0
  132.2620  131.8216  157.2878 H   0  0  0  0  0  0  0  0  0  0  0  0
  132.0172  130.5959  158.5600 H   0  0  0  0  0  0  0  0  0  0  0  0
  131.0817  132.5457  159.5204 H   0  0  0  0  0  0  0  0  0  0  0  0
  129.6688  131.6996  158.8651 H   0  0  0  0  0  0  0  0  0  0  0  0
  131.4205  134.9245  162.0355 H   0  0  0  0  0  0  0  0  0  0  0  0
  130.4154  137.1224  162.1467 H   0  0  0  0  0  0  0  0  0  0  0  0
  131.0307  137.5745  160.4923 H   0  0  0  0  0  0  0  0  0  0  0  0
  133.6501  135.9066  160.1322 H   0  0  0  0  0  0  0  0  0  0  0  0
  133.8151  134.9588  161.6798 H   0  0  0  0  0  0  0  0  0  0  0  0
  127.2329  135.8482  162.5515 H   0  0  0  0  0  0  0  0  0  0  0  0
  126.9437  136.8612  161.1214 H   0  0  0  0  0  0  0  0  0  0  0  0
  124.7860  136.1923  161.8391 H   0  0  0  0  0  0  0  0  0  0  0  0
  1  2  2  0
  2 24  1  0
  2  3  1  0
  3  4  1  0
  3 25  1  0
  3 26  1  0
  4  5  1  0
  4 27  1  0
  4 28  1  0
  5  6  1  6
  5  7  1  0
  5 23  1  0
  7 29  1  0
  8  7  1  0
  8  9  1  0
  8 17  2  0
  9 10  1  0
  9 30  1  0
 10 16  1  0
 10 11  1  0
 10 31  1  0
 11 12  1  0
 11 32  1  0
 11 33  1  0
 12 13  1  0
 12 34  1  0
 12 35  1  0
 13 14  1  0
 13 36  1  0
 13 37  1  0
 14 15  1  0
 14 38  1  0
 14 39  1  0
 15 16  1  0
 15 40  1  0
 15 41  1  0
 16 42  1  0
 16 43  1  0
 17 18  1  0
 17 19  1  0
 19 22  1  0
 19 20  1  0
 19 44  1  0
 20 21  1  0
 20 45  1  0
 20 46  1  0
 21 22  1  0
 22 47  1  0
 22 48  1  0
 23 24  1  0
 23 49  1  0
 23 50  1  0
 24 51  1  0
M  CHG  1  17   1
M  END
>  <DOCK_score>  (1) 
-41.21273

>  <SMILES>  (1) 
O=C1CC[C@H](NC(NC2CCCCCC2)=[NH+]C2CSC2)CN1

$$$$
