Cc1ccc([C@@H](O)c2cccc(C(c3cccnc3)[NH+]3CC(O)C4(CCCC4)C3)c2)cn1
     RDKit          3D

 64 68  0  0  1  0  0  0  0  0999 V2000
  129.0706  139.5748  165.8571 C   0  0  0  0  0  0  0  0  0  0  0  0
  128.2941  138.4663  165.1943 C   0  0  0  0  0  0  0  0  0  0  0  0
  127.5709  138.7306  164.0464 C   0  0  0  0  0  0  0  0  0  0  0  0
  126.8596  137.7041  163.4448 C   0  0  0  0  0  0  0  0  0  0  0  0
  126.9025  136.4444  164.0228 C   0  0  0  0  0  0  0  0  0  0  0  0
  126.1461  135.2959  163.4063 C   0  0  1  0  0  0  0  0  0  0  0  0
  126.3034  134.3961  164.0011 H   0  0  0  0  0  0  0  0  0  0  0  0
  124.7518  135.6071  163.3730 O   0  0  0  0  0  0  0  0  0  0  0  0
  126.6425  135.0632  162.0026 C   0  0  0  0  0  0  0  0  0  0  0  0
  125.7706  135.1677  160.9348 C   0  0  0  0  0  0  0  0  0  0  0  0
  126.2270  134.9590  159.6469 C   0  0  0  0  0  0  0  0  0  0  0  0
  127.5533  134.6360  159.4274 C   0  0  0  0  0  0  0  0  0  0  0  0
  128.4237  134.5259  160.4954 C   0  0  0  0  0  0  0  0  0  0  0  0
  129.8692  134.1734  160.2562 C   0  0  1  0  0  0  0  0  0  0  0  0
  129.9790  133.3127  159.0240 C   0  0  0  0  0  0  0  0  0  0  0  0
  130.1578  133.8918  157.7767 C   0  0  0  0  0  0  0  0  0  0  0  0
  130.2581  133.0607  156.6717 C   0  0  0  0  0  0  0  0  0  0  0  0
  130.1674  131.6927  156.8473 C   0  0  0  0  0  0  0  0  0  0  0  0
  129.9921  131.1771  158.0482 N   0  0  0  0  0  0  0  0  0  0  0  0
  129.8970  131.9368  159.1221 C   0  0  0  0  0  0  0  0  0  0  0  0
  130.6482  135.4040  160.0649 N   0  0  2  0  0  0  0  0  0  0  0  0
  130.3009  135.9212  159.2713 H   0  0  0  0  0  0  0  0  0  0  0  0
  132.0887  135.0842  159.8864 C   0  0  0  0  0  0  0  0  0  0  0  0
  132.8282  136.3863  160.2705 C   0  0  2  0  0  0  0  0  0  0  0  0
  134.0399  136.0842  160.9649 O   0  0  0  0  0  0  0  0  0  0  0  0
  131.8533  137.1321  161.1915 C   0  0  0  0  0  0  0  0  0  0  0  0
  131.4939  138.5050  160.6073 C   0  0  0  0  0  0  0  0  0  0  0  0
  131.3553  139.4177  161.8535 C   0  0  0  0  0  0  0  0  0  0  0  0
  132.4764  138.8975  162.7883 C   0  0  0  0  0  0  0  0  0  0  0  0
  132.4719  137.3679  162.5715 C   0  0  0  0  0  0  0  0  0  0  0  0
  130.6036  136.2432  161.2924 C   0  0  0  0  0  0  0  0  0  0  0  0
  127.9683  134.7398  161.7832 C   0  0  0  0  0  0  0  0  0  0  0  0
  127.6428  136.2568  165.1743 C   0  0  0  0  0  0  0  0  0  0  0  0
  128.3120  137.2557  165.7163 N   0  0  0  0  0  0  0  0  0  0  0  0
  128.4364  140.0758  166.5883 H   0  0  0  0  0  0  0  0  0  0  0  0
  129.9436  139.1571  166.3589 H   0  0  0  0  0  0  0  0  0  0  0  0
  129.3937  140.2930  165.1035 H   0  0  0  0  0  0  0  0  0  0  0  0
  127.5604  139.7243  163.6233 H   0  0  0  0  0  0  0  0  0  0  0  0
  126.2859  137.8811  162.5470 H   0  0  0  0  0  0  0  0  0  0  0  0
  124.5375  136.3982  162.8597 H   0  0  0  0  0  0  0  0  0  0  0  0
  124.7337  135.4160  161.1066 H   0  0  0  0  0  0  0  0  0  0  0  0
  125.5469  135.0446  158.8124 H   0  0  0  0  0  0  0  0  0  0  0  0
  127.9091  134.4693  158.4214 H   0  0  0  0  0  0  0  0  0  0  0  0
  130.2572  133.6276  161.1163 H   0  0  0  0  0  0  0  0  0  0  0  0
  130.2214  134.9646  157.6692 H   0  0  0  0  0  0  0  0  0  0  0  0
  130.4014  133.4771  155.6855 H   0  0  0  0  0  0  0  0  0  0  0  0
  130.2412  131.0385  155.9912 H   0  0  0  0  0  0  0  0  0  0  0  0
  129.7536  131.4783  160.0892 H   0  0  0  0  0  0  0  0  0  0  0  0
  132.3824  134.2706  160.5497 H   0  0  0  0  0  0  0  0  0  0  0  0
  132.2942  134.8226  158.8484 H   0  0  0  0  0  0  0  0  0  0  0  0
  133.0392  136.9796  159.3808 H   0  0  0  0  0  0  0  0  0  0  0  0
  134.6734  135.5706  160.4455 H   0  0  0  0  0  0  0  0  0  0  0  0
  132.2914  138.8645  159.9572 H   0  0  0  0  0  0  0  0  0  0  0  0
  130.5503  138.4541  160.0642 H   0  0  0  0  0  0  0  0  0  0  0  0
  130.3769  139.2920  162.3171 H   0  0  0  0  0  0  0  0  0  0  0  0
  131.5252  140.4620  161.5913 H   0  0  0  0  0  0  0  0  0  0  0  0
  132.2481  139.1360  163.8271 H   0  0  0  0  0  0  0  0  0  0  0  0
  133.4400  139.3202  162.5037 H   0  0  0  0  0  0  0  0  0  0  0  0
  131.8698  136.8825  163.3396 H   0  0  0  0  0  0  0  0  0  0  0  0
  133.4911  136.9821  162.5958 H   0  0  0  0  0  0  0  0  0  0  0  0
  129.7001  136.8531  161.3039 H   0  0  0  0  0  0  0  0  0  0  0  0
  130.6532  135.6175  162.1835 H   0  0  0  0  0  0  0  0  0  0  0  0
  128.6483  134.6539  162.6177 H   0  0  0  0  0  0  0  0  0  0  0  0
  127.6774  135.2798  165.6333 H   0  0  0  0  0  0  0  0  0  0  0  0
  1  2  1  0
  1 35  1  0
  1 36  1  0
  1 37  1  0
  2 34  2  0
  2  3  1  0
  3  4  2  0
  3 38  1  0
  4  5  1  0
  4 39  1  0
  5  6  1  0
  5 33  2  0
  6  7  1  1
  6  8  1  0
  6  9  1  0
  8 40  1  0
  9 32  1  0
  9 10  2  0
 10 11  1  0
 10 41  1  0
 11 12  2  0
 11 42  1  0
 12 13  1  0
 12 43  1  0
 13 14  1  0
 13 32  2  0
 14 15  1  0
 14 21  1  0
 14 44  1  1
 15 20  1  0
 15 16  2  0
 16 17  1  0
 16 45  1  0
 17 18  2  0
 17 46  1  0
 18 19  1  0
 18 47  1  0
 19 20  2  0
 20 48  1  0
 21 22  1  6
 21 31  1  0
 21 23  1  0
 23 24  1  0
 23 49  1  0
 23 50  1  0
 24 25  1  0
 24 26  1  0
 24 51  1  6
 25 52  1  0
 26 30  1  0
 26 27  1  0
 26 31  1  0
 27 28  1  0
 27 53  1  0
 27 54  1  0
 28 29  1  0
 28 55  1  0
 28 56  1  0
 29 30  1  0
 29 57  1  0
 29 58  1  0
 30 59  1  0
 30 60  1  0
 31 61  1  0
 31 62  1  0
 32 63  1  0
 33 34  1  0
 33 64  1  0
M  CHG  1  21   1
M  END
>  <DOCK_score>  (1) 
-43.863785

>  <SMILES>  (1) 
Cc1ccc([C@@H](O)c2cccc(C(c3cccnc3)[NH+]3CC(O)C4(CCCC4)C3)c2)cn1

$$$$
