Nc1ccc(-c2c[nH]c(N[C@@H](c3ccccc3)c3cccc4ccccc34)[nH+]2)cc1
     RDKit          3D

 53 57  0  0  1  0  0  0  0  0999 V2000
  130.8871  129.1771  150.8893 N   0  0  0  0  0  0  0  0  0  0  0  0
  130.8332  129.7799  152.1483 C   0  0  0  0  0  0  0  0  0  0  0  0
  130.1146  130.9574  152.3231 C   0  0  0  0  0  0  0  0  0  0  0  0
  130.0603  131.5550  153.5645 C   0  0  0  0  0  0  0  0  0  0  0  0
  130.7263  130.9778  154.6445 C   0  0  0  0  0  0  0  0  0  0  0  0
  130.6699  131.6191  155.9811 C   0  0  0  0  0  0  0  0  0  0  0  0
  130.1724  131.0621  157.1129 C   0  0  0  0  0  0  0  0  0  0  0  0
  130.3155  131.9951  158.1125 N   0  0  0  0  0  0  0  0  0  0  0  0
  130.0511  131.8890  159.0397 H   0  0  0  0  0  0  0  0  0  0  0  0
  130.8967  133.0948  157.5608 C   0  0  0  0  0  0  0  0  0  0  0  0
  131.2137  134.2625  158.2335 N   0  0  0  0  0  0  0  0  0  0  0  0
  130.9229  134.3858  159.6640 C   0  0  1  0  0  0  0  0  0  0  0  0
  131.1495  133.4437  160.1633 H   0  0  0  0  0  0  0  0  0  0  0  0
  131.7686  135.4839  160.2558 C   0  0  0  0  0  0  0  0  0  0  0  0
  133.0156  135.1918  160.7760 C   0  0  0  0  0  0  0  0  0  0  0  0
  133.7930  136.1998  161.3148 C   0  0  0  0  0  0  0  0  0  0  0  0
  133.3196  137.4982  161.3421 C   0  0  0  0  0  0  0  0  0  0  0  0
  132.0706  137.7895  160.8263 C   0  0  0  0  0  0  0  0  0  0  0  0
  131.2949  136.7822  160.2836 C   0  0  0  0  0  0  0  0  0  0  0  0
  129.4650  134.7168  159.8538 C   0  0  0  0  0  0  0  0  0  0  0  0
  128.6483  134.8535  158.7733 C   0  0  0  0  0  0  0  0  0  0  0  0
  127.2978  135.1590  158.9291 C   0  0  0  0  0  0  0  0  0  0  0  0
  126.7559  135.3295  160.1661 C   0  0  0  0  0  0  0  0  0  0  0  0
  127.5678  135.1963  161.3050 C   0  0  0  0  0  0  0  0  0  0  0  0
  127.0442  135.3645  162.5986 C   0  0  0  0  0  0  0  0  0  0  0  0
  127.8571  135.2114  163.6792 C   0  0  0  0  0  0  0  0  0  0  0  0
  129.2082  134.9063  163.5233 C   0  0  0  0  0  0  0  0  0  0  0  0
  129.7513  134.7412  162.2865 C   0  0  0  0  0  0  0  0  0  0  0  0
  128.9404  134.8803  161.1469 C   0  0  0  0  0  0  0  0  0  0  0  0
  131.1017  132.8684  156.2860 N   0  0  0  0  0  0  0  0  0  0  0  0
  131.5004  133.4938  155.6608 H   0  0  0  0  0  0  0  0  0  0  0  0
  131.4503  129.7999  154.4655 C   0  0  0  0  0  0  0  0  0  0  0  0
  131.4974  129.2030  153.2235 C   0  0  0  0  0  0  0  0  0  0  0  0
  130.4233  129.5793  150.1383 H   0  0  0  0  0  0  0  0  0  0  0  0
  131.3882  128.3557  150.7663 H   0  0  0  0  0  0  0  0  0  0  0  0
  129.5988  131.4042  151.4860 H   0  0  0  0  0  0  0  0  0  0  0  0
  129.5020  132.4695  153.7001 H   0  0  0  0  0  0  0  0  0  0  0  0
  129.7451  130.0751  157.2102 H   0  0  0  0  0  0  0  0  0  0  0  0
  131.6247  135.0006  157.7568 H   0  0  0  0  0  0  0  0  0  0  0  0
  133.3837  134.1766  160.7583 H   0  0  0  0  0  0  0  0  0  0  0  0
  134.7689  135.9723  161.7175 H   0  0  0  0  0  0  0  0  0  0  0  0
  133.9256  138.2852  161.7661 H   0  0  0  0  0  0  0  0  0  0  0  0
  131.7006  138.8039  160.8477 H   0  0  0  0  0  0  0  0  0  0  0  0
  130.3190  137.0097  159.8810 H   0  0  0  0  0  0  0  0  0  0  0  0
  129.0532  134.7237  157.7807 H   0  0  0  0  0  0  0  0  0  0  0  0
  126.6716  135.2623  158.0553 H   0  0  0  0  0  0  0  0  0  0  0  0
  125.7075  135.5664  160.2717 H   0  0  0  0  0  0  0  0  0  0  0  0
  125.9994  135.6019  162.7346 H   0  0  0  0  0  0  0  0  0  0  0  0
  127.4513  135.3370  164.6721 H   0  0  0  0  0  0  0  0  0  0  0  0
  129.8334  134.7988  164.3974 H   0  0  0  0  0  0  0  0  0  0  0  0
  130.7998  134.5050  162.1811 H   0  0  0  0  0  0  0  0  0  0  0  0
  131.9704  129.3532  155.3000 H   0  0  0  0  0  0  0  0  0  0  0  0
  132.0549  128.2883  153.0852 H   0  0  0  0  0  0  0  0  0  0  0  0
  1  2  1  0
  1 34  1  0
  1 35  1  0
  2 33  2  0
  2  3  1  0
  3  4  2  0
  3 36  1  0
  4  5  1  0
  4 37  1  0
  5  6  1  0
  5 32  2  0
  6 30  1  0
  6  7  2  0
  7  8  1  0
  7 38  1  0
  8  9  1  0
  8 10  1  0
 10 11  1  0
 10 30  2  0
 11 12  1  0
 11 39  1  0
 12 13  1  1
 12 14  1  0
 12 20  1  0
 14 19  1  0
 14 15  2  0
 15 16  1  0
 15 40  1  0
 16 17  2  0
 16 41  1  0
 17 18  1  0
 17 42  1  0
 18 19  2  0
 18 43  1  0
 19 44  1  0
 20 29  1  0
 20 21  2  0
 21 22  1  0
 21 45  1  0
 22 23  2  0
 22 46  1  0
 23 24  1  0
 23 47  1  0
 24 29  2  0
 24 25  1  0
 25 26  2  0
 25 48  1  0
 26 27  1  0
 26 49  1  0
 27 28  2  0
 27 50  1  0
 28 29  1  0
 28 51  1  0
 30 31  1  0
 32 33  1  0
 32 52  1  0
 33 53  1  0
M  CHG  1  30   1
M  END
>  <DOCK_score>  (1) 
-60.474556

>  <SMILES>  (1) 
Nc1ccc(-c2c[nH]c(N[C@@H](c3ccccc3)c3cccc4ccccc34)[nH+]2)cc1

$$$$
