O=C1CC[C@H]([NH+]=C(NC/C=C/Br)NC2CCC2)CN1
     RDKit          3D

 41 42  0  0  1  0  0  0  0  0999 V2000
  124.1040  133.5141  161.9566 O   0  0  0  0  0  0  0  0  0  0  0  0
  125.2239  133.7834  161.5765 C   0  0  0  0  0  0  0  0  0  0  0  0
  126.1335  132.6533  161.1882 C   0  0  0  0  0  0  0  0  0  0  0  0
  127.5854  133.1376  161.1659 C   0  0  0  0  0  0  0  0  0  0  0  0
  127.6492  134.4415  160.3613 C   0  0  2  0  0  0  0  0  0  0  0  0
  127.1757  134.2956  159.3904 H   0  0  0  0  0  0  0  0  0  0  0  0
  129.0476  134.8363  160.1754 N   0  0  0  0  0  0  0  0  0  0  0  0
  129.4808  135.4090  160.8276 H   0  0  0  0  0  0  0  0  0  0  0  0
  129.7098  134.4183  159.1333 C   0  0  0  0  0  0  0  0  0  0  0  0
  129.0487  134.1663  157.9546 N   0  0  0  0  0  0  0  0  0  0  0  0
  129.5519  133.1407  157.0373 C   0  0  0  0  0  0  0  0  0  0  0  0
  129.5701  131.8063  157.7370 C   0  0  0  0  0  0  0  0  0  0  0  0
  130.6998  131.1560  157.8797 C   0  0  0  0  0  0  0  0  0  0  0  0
  130.7225  129.4815  158.7578 Br  0  0  0  0  0  0  0  0  0  0  0  0
  131.0692  134.2296  159.2130 N   0  0  0  0  0  0  0  0  0  0  0  0
  131.7737  134.4982  160.4690 C   0  0  0  0  0  0  0  0  0  0  0  0
  132.1181  135.9825  160.6771 C   0  0  0  0  0  0  0  0  0  0  0  0
  133.4680  135.5091  161.2414 C   0  0  0  0  0  0  0  0  0  0  0  0
  133.2876  134.2386  160.3940 C   0  0  0  0  0  0  0  0  0  0  0  0
  126.9070  135.5313  161.1361 C   0  0  0  0  0  0  0  0  0  0  0  0
  125.5817  135.0670  161.5264 N   0  0  0  0  0  0  0  0  0  0  0  0
  125.8577  132.2904  160.1980 H   0  0  0  0  0  0  0  0  0  0  0  0
  126.0331  131.8431  161.9102 H   0  0  0  0  0  0  0  0  0  0  0  0
  127.9276  133.3181  162.1849 H   0  0  0  0  0  0  0  0  0  0  0  0
  128.2163  132.3841  160.6944 H   0  0  0  0  0  0  0  0  0  0  0  0
  128.2489  134.6674  157.7302 H   0  0  0  0  0  0  0  0  0  0  0  0
  128.9022  133.0842  156.1638 H   0  0  0  0  0  0  0  0  0  0  0  0
  130.5627  133.3997  156.7221 H   0  0  0  0  0  0  0  0  0  0  0  0
  128.6526  131.3854  158.1211 H   0  0  0  0  0  0  0  0  0  0  0  0
  131.6173  131.5769  157.4957 H   0  0  0  0  0  0  0  0  0  0  0  0
  131.5618  133.9186  158.4376 H   0  0  0  0  0  0  0  0  0  0  0  0
  131.2935  134.0352  161.3312 H   0  0  0  0  0  0  0  0  0  0  0  0
  132.2065  136.5446  159.7473 H   0  0  0  0  0  0  0  0  0  0  0  0
  131.4863  136.4783  161.4139 H   0  0  0  0  0  0  0  0  0  0  0  0
  133.4512  135.3237  162.3154 H   0  0  0  0  0  0  0  0  0  0  0  0
  134.3124  136.1246  160.9313 H   0  0  0  0  0  0  0  0  0  0  0  0
  133.6000  133.3266  160.9025 H   0  0  0  0  0  0  0  0  0  0  0  0
  133.6958  134.3240  159.3868 H   0  0  0  0  0  0  0  0  0  0  0  0
  126.8080  136.4162  160.5074 H   0  0  0  0  0  0  0  0  0  0  0  0
  127.4758  135.7897  162.0292 H   0  0  0  0  0  0  0  0  0  0  0  0
  124.9185  135.7334  161.7649 H   0  0  0  0  0  0  0  0  0  0  0  0
  1  2  2  0
  2 21  1  0
  2  3  1  0
  3  4  1  0
  3 22  1  0
  3 23  1  0
  4  5  1  0
  4 24  1  0
  4 25  1  0
  5  6  1  6
  5  7  1  0
  5 20  1  0
  7  8  1  0
  9  7  2  0
  9 10  1  0
  9 15  1  0
 10 11  1  0
 10 26  1  0
 11 12  1  0
 11 27  1  0
 11 28  1  0
 12 13  2  0
 12 29  1  0
 13 14  1  0
 13 30  1  0
 15 16  1  0
 15 31  1  0
 16 19  1  0
 16 17  1  0
 16 32  1  0
 17 18  1  0
 17 33  1  0
 17 34  1  0
 18 19  1  0
 18 35  1  0
 18 36  1  0
 19 37  1  0
 19 38  1  0
 20 21  1  0
 20 39  1  0
 20 40  1  0
 21 41  1  0
M  CHG  1   7   1
M  END
>  <DOCK_score>  (1) 
-42.339809

>  <SMILES>  (1) 
O=C1CC[C@H]([NH+]=C(NC/C=C/Br)NC2CCC2)CN1

$$$$
