C[C@H](Cc1ccccc1O)[NH2+]C(Cc1ccccc1)c1ccccc1
     RDKit          3D

 51 53  0  0  1  0  0  0  0  0999 V2000
  128.2694  136.1490  157.6379 C   0  0  0  0  0  0  0  0  0  0  0  0
  127.7008  135.0576  158.5470 C   0  0  2  0  0  0  0  0  0  0  0  0
  127.4822  134.1689  157.9549 H   0  0  0  0  0  0  0  0  0  0  0  0
  126.4146  135.5609  159.2051 C   0  0  0  0  0  0  0  0  0  0  0  0
  125.8546  134.4861  160.1006 C   0  0  0  0  0  0  0  0  0  0  0  0
  125.4952  133.2619  159.5701 C   0  0  0  0  0  0  0  0  0  0  0  0
  124.9858  132.2738  160.3918 C   0  0  0  0  0  0  0  0  0  0  0  0
  124.8250  132.5110  161.7446 C   0  0  0  0  0  0  0  0  0  0  0  0
  125.1779  133.7348  162.2791 C   0  0  0  0  0  0  0  0  0  0  0  0
  125.6942  134.7265  161.4574 C   0  0  0  0  0  0  0  0  0  0  0  0
  126.0418  135.9316  161.9807 O   0  0  0  0  0  0  0  0  0  0  0  0
  128.6844  134.7241  159.5859 N   0  0  0  0  0  0  0  0  0  0  0  0
  128.2181  134.2712  160.3575 H   0  0  0  0  0  0  0  0  0  0  0  0
  129.1297  135.5691  159.9111 H   0  0  0  0  0  0  0  0  0  0  0  0
  129.6986  133.8199  159.0277 C   0  0  2  0  0  0  0  0  0  0  0  0
  129.1480  132.3927  158.9972 C   0  0  0  0  0  0  0  0  0  0  0  0
  129.9384  131.5703  158.0123 C   0  0  0  0  0  0  0  0  0  0  0  0
  129.5409  131.5054  156.6899 C   0  0  0  0  0  0  0  0  0  0  0  0
  130.2628  130.7468  155.7876 C   0  0  0  0  0  0  0  0  0  0  0  0
  131.3881  130.0612  156.2054 C   0  0  0  0  0  0  0  0  0  0  0  0
  131.7858  130.1264  157.5277 C   0  0  0  0  0  0  0  0  0  0  0  0
  131.0611  130.8812  158.4311 C   0  0  0  0  0  0  0  0  0  0  0  0
  130.9366  133.8624  159.8861 C   0  0  0  0  0  0  0  0  0  0  0  0
  132.1777  133.6369  159.3207 C   0  0  0  0  0  0  0  0  0  0  0  0
  133.3137  133.6804  160.1073 C   0  0  0  0  0  0  0  0  0  0  0  0
  133.2075  133.9393  161.4611 C   0  0  0  0  0  0  0  0  0  0  0  0
  131.9659  134.1596  162.0273 C   0  0  0  0  0  0  0  0  0  0  0  0
  130.8304  134.1211  161.2399 C   0  0  0  0  0  0  0  0  0  0  0  0
  129.0851  135.7380  157.0430 H   0  0  0  0  0  0  0  0  0  0  0  0
  127.4851  136.5150  156.9753 H   0  0  0  0  0  0  0  0  0  0  0  0
  128.6431  136.9716  158.2475 H   0  0  0  0  0  0  0  0  0  0  0  0
  126.6332  136.4497  159.7973 H   0  0  0  0  0  0  0  0  0  0  0  0
  125.6848  135.8084  158.4343 H   0  0  0  0  0  0  0  0  0  0  0  0
  125.6161  133.0756  158.5131 H   0  0  0  0  0  0  0  0  0  0  0  0
  124.7093  131.3163  159.9758 H   0  0  0  0  0  0  0  0  0  0  0  0
  124.4233  131.7387  162.3839 H   0  0  0  0  0  0  0  0  0  0  0  0
  125.0525  133.9196  163.3358 H   0  0  0  0  0  0  0  0  0  0  0  0
  125.8937  136.0042  162.9336 H   0  0  0  0  0  0  0  0  0  0  0  0
  129.9480  134.1348  158.0145 H   0  0  0  0  0  0  0  0  0  0  0  0
  128.1009  132.4137  158.6952 H   0  0  0  0  0  0  0  0  0  0  0  0
  129.2312  131.9498  159.9897 H   0  0  0  0  0  0  0  0  0  0  0  0
  128.6637  132.0439  156.3626 H   0  0  0  0  0  0  0  0  0  0  0  0
  129.9497  130.6925  154.7554 H   0  0  0  0  0  0  0  0  0  0  0  0
  131.9545  129.4718  155.4996 H   0  0  0  0  0  0  0  0  0  0  0  0
  132.6630  129.5880  157.8549 H   0  0  0  0  0  0  0  0  0  0  0  0
  131.3719  130.9321  159.4641 H   0  0  0  0  0  0  0  0  0  0  0  0
  132.2603  133.4303  158.2639 H   0  0  0  0  0  0  0  0  0  0  0  0
  134.2838  133.5080  159.6650 H   0  0  0  0  0  0  0  0  0  0  0  0
  134.0945  133.9690  162.0763 H   0  0  0  0  0  0  0  0  0  0  0  0
  131.8829  134.3615  163.0850 H   0  0  0  0  0  0  0  0  0  0  0  0
  129.8602  134.2929  161.6824 H   0  0  0  0  0  0  0  0  0  0  0  0
  1  2  1  0
  1 29  1  0
  1 30  1  0
  1 31  1  0
  2  3  1  6
  2  4  1  0
  2 12  1  0
  4  5  1  0
  4 32  1  0
  4 33  1  0
  5 10  1  0
  5  6  2  0
  6  7  1  0
  6 34  1  0
  7  8  2  0
  7 35  1  0
  8  9  1  0
  8 36  1  0
  9 10  2  0
  9 37  1  0
 10 11  1  0
 11 38  1  0
 12 13  1  0
 12 14  1  0
 12 15  1  0
 15 16  1  0
 15 23  1  0
 15 39  1  6
 16 17  1  0
 16 40  1  0
 16 41  1  0
 17 22  1  0
 17 18  2  0
 18 19  1  0
 18 42  1  0
 19 20  2  0
 19 43  1  0
 20 21  1  0
 20 44  1  0
 21 22  2  0
 21 45  1  0
 22 46  1  0
 23 28  1  0
 23 24  2  0
 24 25  1  0
 24 47  1  0
 25 26  2  0
 25 48  1  0
 26 27  1  0
 26 49  1  0
 27 28  2  0
 27 50  1  0
 28 51  1  0
M  CHG  1  12   1
M  END
>  <DOCK_score>  (1) 
-43.695934

>  <SMILES>  (1) 
C[C@H](Cc1ccccc1O)[NH2+]C(Cc1ccccc1)c1ccccc1

$$$$
