Cc1c[nH]c(Nc2ccc(Nc3ccc4c(c3)CC[C@H](O)C4)cc2)[nH+]1
     RDKit          3D

 48 51  0  0  1  0  0  0  0  0999 V2000
  130.2041  131.8237  154.7224 C   0  0  0  0  0  0  0  0  0  0  0  0
  129.8965  132.5136  156.0264 C   0  0  0  0  0  0  0  0  0  0  0  0
  129.2731  131.9609  157.0812 C   0  0  0  0  0  0  0  0  0  0  0  0
  129.2021  132.9284  158.0574 N   0  0  0  0  0  0  0  0  0  0  0  0
  128.8097  132.8306  158.9391 H   0  0  0  0  0  0  0  0  0  0  0  0
  129.7845  134.0488  157.5506 C   0  0  0  0  0  0  0  0  0  0  0  0
  129.9215  135.2599  158.2096 N   0  0  0  0  0  0  0  0  0  0  0  0
  128.9754  135.6473  159.1663 C   0  0  0  0  0  0  0  0  0  0  0  0
  129.3547  136.4542  160.2312 C   0  0  0  0  0  0  0  0  0  0  0  0
  128.4218  136.8362  161.1745 C   0  0  0  0  0  0  0  0  0  0  0  0
  127.1038  136.4134  161.0586 C   0  0  0  0  0  0  0  0  0  0  0  0
  126.1580  136.8003  162.0151 N   0  0  0  0  0  0  0  0  0  0  0  0
  126.5545  137.0364  163.3335 C   0  0  0  0  0  0  0  0  0  0  0  0
  126.3656  138.2881  163.9065 C   0  0  0  0  0  0  0  0  0  0  0  0
  126.7532  138.5073  165.2105 C   0  0  0  0  0  0  0  0  0  0  0  0
  127.3416  137.4917  165.9550 C   0  0  0  0  0  0  0  0  0  0  0  0
  127.5398  136.2528  165.3866 C   0  0  0  0  0  0  0  0  0  0  0  0
  127.1437  136.0250  164.0762 C   0  0  0  0  0  0  0  0  0  0  0  0
  128.1865  135.1136  166.1305 C   0  0  0  0  0  0  0  0  0  0  0  0
  128.1652  135.3735  167.6354 C   0  0  0  0  0  0  0  0  0  0  0  0
  128.7374  136.7726  167.8929 C   0  0  2  0  0  0  0  0  0  0  0  0
  129.6857  136.8838  167.3671 H   0  0  0  0  0  0  0  0  0  0  0  0
  128.9394  136.9602  169.2949 O   0  0  0  0  0  0  0  0  0  0  0  0
  127.7376  137.8044  167.3746 C   0  0  0  0  0  0  0  0  0  0  0  0
  126.7244  135.6065  159.9935 C   0  0  0  0  0  0  0  0  0  0  0  0
  127.6574  135.2246  159.0504 C   0  0  0  0  0  0  0  0  0  0  0  0
  130.1993  133.7859  156.3338 N   0  0  0  0  0  0  0  0  0  0  0  0
  130.6529  134.4120  155.7480 H   0  0  0  0  0  0  0  0  0  0  0  0
  131.1842  131.3508  154.7837 H   0  0  0  0  0  0  0  0  0  0  0  0
  129.4465  131.0652  154.5252 H   0  0  0  0  0  0  0  0  0  0  0  0
  130.2038  132.5560  153.9151 H   0  0  0  0  0  0  0  0  0  0  0  0
  128.9025  130.9489  157.1510 H   0  0  0  0  0  0  0  0  0  0  0  0
  130.6729  135.8392  158.0083 H   0  0  0  0  0  0  0  0  0  0  0  0
  130.3796  136.7828  160.3213 H   0  0  0  0  0  0  0  0  0  0  0  0
  128.7159  137.4673  162.0000 H   0  0  0  0  0  0  0  0  0  0  0  0
  125.2272  136.9044  161.7624 H   0  0  0  0  0  0  0  0  0  0  0  0
  125.9134  139.0844  163.3340 H   0  0  0  0  0  0  0  0  0  0  0  0
  126.6025  139.4790  165.6569 H   0  0  0  0  0  0  0  0  0  0  0  0
  127.2954  135.0524  163.6317 H   0  0  0  0  0  0  0  0  0  0  0  0
  127.6451  134.1919  165.9175 H   0  0  0  0  0  0  0  0  0  0  0  0
  129.2193  135.0078  165.7986 H   0  0  0  0  0  0  0  0  0  0  0  0
  128.7754  134.6279  168.1453 H   0  0  0  0  0  0  0  0  0  0  0  0
  127.1401  135.3230  168.0022 H   0  0  0  0  0  0  0  0  0  0  0  0
  129.2852  137.8323  169.5293 H   0  0  0  0  0  0  0  0  0  0  0  0
  128.1917  138.7947  167.4112 H   0  0  0  0  0  0  0  0  0  0  0  0
  126.8495  137.7934  168.0063 H   0  0  0  0  0  0  0  0  0  0  0  0
  125.6998  135.2775  159.9036 H   0  0  0  0  0  0  0  0  0  0  0  0
  127.3626  134.5968  158.2225 H   0  0  0  0  0  0  0  0  0  0  0  0
  1  2  1  0
  1 29  1  0
  1 30  1  0
  1 31  1  0
  2 27  1  0
  2  3  2  0
  3  4  1  0
  3 32  1  0
  4  5  1  0
  4  6  1  0
  6  7  1  0
  6 27  2  0
  7  8  1  0
  7 33  1  0
  8 26  1  0
  8  9  2  0
  9 10  1  0
  9 34  1  0
 10 11  2  0
 10 35  1  0
 11 12  1  0
 11 25  1  0
 12 13  1  0
 12 36  1  0
 13 18  1  0
 13 14  2  0
 14 15  1  0
 14 37  1  0
 15 16  2  0
 15 38  1  0
 16 24  1  0
 16 17  1  0
 17 18  2  0
 17 19  1  0
 18 39  1  0
 19 20  1  0
 19 40  1  0
 19 41  1  0
 20 21  1  0
 20 42  1  0
 20 43  1  0
 21 22  1  6
 21 23  1  0
 21 24  1  0
 23 44  1  0
 24 45  1  0
 24 46  1  0
 25 26  2  0
 25 47  1  0
 26 48  1  0
 27 28  1  0
M  CHG  1  27   1
M  END
>  <DOCK_score>  (1) 
-48.008125

>  <SMILES>  (1) 
Cc1c[nH]c(Nc2ccc(Nc3ccc4c(c3)CC[C@H](O)C4)cc2)[nH+]1

$$$$
