O=C1CC[C@H](NC(NC2COC2)=[NH+][C@H]2COc3cc(NC4CCC4)ccc3C2)CN1
     RDKit          3D

 62 66  0  0  1  0  0  0  0  0999 V2000
  123.9249  132.9245  161.0877 O   0  0  0  0  0  0  0  0  0  0  0  0
  125.0904  133.1793  160.8697 C   0  0  0  0  0  0  0  0  0  0  0  0
  125.9807  132.0728  160.3819 C   0  0  0  0  0  0  0  0  0  0  0  0
  127.4489  132.4569  160.5789 C   0  0  0  0  0  0  0  0  0  0  0  0
  127.6590  133.8709  160.0238 C   0  0  2  0  0  0  0  0  0  0  0  0
  127.2860  133.9214  159.0009 H   0  0  0  0  0  0  0  0  0  0  0  0
  129.0866  134.1995  160.0432 N   0  0  0  0  0  0  0  0  0  0  0  0
  129.8744  133.9056  158.9557 C   0  0  0  0  0  0  0  0  0  0  0  0
  129.3228  133.3033  157.8497 N   0  0  0  0  0  0  0  0  0  0  0  0
  130.1385  132.4189  157.0139 C   0  0  0  0  0  0  0  0  0  0  0  0
  129.3688  131.2126  156.4442 C   0  0  0  0  0  0  0  0  0  0  0  0
  129.1083  132.0598  155.3069 O   0  0  0  0  0  0  0  0  0  0  0  0
  130.2639  132.8864  155.5516 C   0  0  0  0  0  0  0  0  0  0  0  0
  131.1445  134.1980  158.9729 N   0  0  0  0  0  0  0  0  0  0  0  0
  131.6046  134.4106  158.1457 H   0  0  0  0  0  0  0  0  0  0  0  0
  131.8774  134.2056  160.2414 C   0  0  1  0  0  0  0  0  0  0  0  0
  131.4330  133.4840  160.9268 H   0  0  0  0  0  0  0  0  0  0  0  0
  133.3472  133.8442  159.9917 C   0  0  0  0  0  0  0  0  0  0  0  0
  134.0102  133.7574  161.2536 O   0  0  0  0  0  0  0  0  0  0  0  0
  133.8414  134.7804  162.1316 C   0  0  0  0  0  0  0  0  0  0  0  0
  134.7348  134.8984  163.1901 C   0  0  0  0  0  0  0  0  0  0  0  0
  134.5939  135.9266  164.1094 C   0  0  0  0  0  0  0  0  0  0  0  0
  135.4922  136.0437  165.1725 N   0  0  0  0  0  0  0  0  0  0  0  0
  135.3410  137.1309  166.1426 C   0  0  0  0  0  0  0  0  0  0  0  0
  136.5063  137.2320  167.1411 C   0  0  0  0  0  0  0  0  0  0  0  0
  135.4525  137.5326  168.2199 C   0  0  0  0  0  0  0  0  0  0  0  0
  134.4488  136.7674  167.3413 C   0  0  0  0  0  0  0  0  0  0  0  0
  133.5554  136.8395  163.9706 C   0  0  0  0  0  0  0  0  0  0  0  0
  132.6712  136.7207  162.9183 C   0  0  0  0  0  0  0  0  0  0  0  0
  132.8108  135.6951  161.9968 C   0  0  0  0  0  0  0  0  0  0  0  0
  131.8243  135.6049  160.8596 C   0  0  0  0  0  0  0  0  0  0  0  0
  126.8922  134.8631  160.8990 C   0  0  0  0  0  0  0  0  0  0  0  0
  125.5126  134.4274  161.0756 N   0  0  0  0  0  0  0  0  0  0  0  0
  125.7659  131.1621  160.9409 H   0  0  0  0  0  0  0  0  0  0  0  0
  125.7951  131.8992  159.3219 H   0  0  0  0  0  0  0  0  0  0  0  0
  128.0890  131.7544  160.0452 H   0  0  0  0  0  0  0  0  0  0  0  0
  127.6908  132.4401  161.6415 H   0  0  0  0  0  0  0  0  0  0  0  0
  129.4758  134.6244  160.8235 H   0  0  0  0  0  0  0  0  0  0  0  0
  128.3935  133.4640  157.6228 H   0  0  0  0  0  0  0  0  0  0  0  0
  131.0905  132.1557  157.4750 H   0  0  0  0  0  0  0  0  0  0  0  0
  130.0000  130.3531  156.2185 H   0  0  0  0  0  0  0  0  0  0  0  0
  128.4763  130.9506  157.0125 H   0  0  0  0  0  0  0  0  0  0  0  0
  130.0817  133.9518  155.4119 H   0  0  0  0  0  0  0  0  0  0  0  0
  131.1698  132.5398  155.0541 H   0  0  0  0  0  0  0  0  0  0  0  0
  133.4073  132.8843  159.4787 H   0  0  0  0  0  0  0  0  0  0  0  0
  133.8167  134.6162  159.3820 H   0  0  0  0  0  0  0  0  0  0  0  0
  135.5408  134.1875  163.2967 H   0  0  0  0  0  0  0  0  0  0  0  0
  136.2160  135.4052  165.2684 H   0  0  0  0  0  0  0  0  0  0  0  0
  135.0802  138.0812  165.6764 H   0  0  0  0  0  0  0  0  0  0  0  0
  137.0323  136.2898  167.2950 H   0  0  0  0  0  0  0  0  0  0  0  0
  137.1794  138.0663  166.9436 H   0  0  0  0  0  0  0  0  0  0  0  0
  135.2230  138.5933  168.3226 H   0  0  0  0  0  0  0  0  0  0  0  0
  135.6549  137.0481  169.1751 H   0  0  0  0  0  0  0  0  0  0  0  0
  133.4610  137.2267  167.3054 H   0  0  0  0  0  0  0  0  0  0  0  0
  134.4111  135.6981  167.5491 H   0  0  0  0  0  0  0  0  0  0  0  0
  133.4409  137.6412  164.6852 H   0  0  0  0  0  0  0  0  0  0  0  0
  131.8648  137.4313  162.8120 H   0  0  0  0  0  0  0  0  0  0  0  0
  132.0768  136.3462  160.1013 H   0  0  0  0  0  0  0  0  0  0  0  0
  130.8190  135.7980  161.2343 H   0  0  0  0  0  0  0  0  0  0  0  0
  127.3756  134.9323  161.8736 H   0  0  0  0  0  0  0  0  0  0  0  0
  126.8992  135.8437  160.4230 H   0  0  0  0  0  0  0  0  0  0  0  0
  124.8606  135.0867  161.3604 H   0  0  0  0  0  0  0  0  0  0  0  0
  1  2  2  0
  2 33  1  0
  2  3  1  0
  3  4  1  0
  3 34  1  0
  3 35  1  0
  4  5  1  0
  4 36  1  0
  4 37  1  0
  5  6  1  6
  5  7  1  0
  5 32  1  0
  7 38  1  0
  8  7  1  0
  8  9  1  0
  8 14  2  0
  9 10  1  0
  9 39  1  0
 10 13  1  0
 10 11  1  0
 10 40  1  0
 11 12  1  0
 11 41  1  0
 11 42  1  0
 12 13  1  0
 13 43  1  0
 13 44  1  0
 14 15  1  0
 14 16  1  0
 16 17  1  1
 16 31  1  0
 16 18  1  0
 18 19  1  0
 18 45  1  0
 18 46  1  0
 19 20  1  0
 20 30  2  0
 20 21  1  0
 21 22  2  0
 21 47  1  0
 22 23  1  0
 22 28  1  0
 23 24  1  0
 23 48  1  0
 24 27  1  0
 24 25  1  0
 24 49  1  0
 25 26  1  0
 25 50  1  0
 25 51  1  0
 26 27  1  0
 26 52  1  0
 26 53  1  0
 27 54  1  0
 27 55  1  0
 28 29  2  0
 28 56  1  0
 29 30  1  0
 29 57  1  0
 30 31  1  0
 31 58  1  0
 31 59  1  0
 32 33  1  0
 32 60  1  0
 32 61  1  0
 33 62  1  0
M  CHG  1  14   1
M  END
>  <DOCK_score>  (1) 
-41.039669

>  <SMILES>  (1) 
O=C1CC[C@H](NC(NC2COC2)=[NH+][C@H]2COc3cc(NC4CCC4)ccc3C2)CN1

$$$$
