CNC(=[NH2+])N[C@H]1C[C@H]1N[C@H]1c2cc(O)ccc2-c2ccc(CC3CCC(=O)NC3)cc21
     RDKit          3D

 61 65  0  0  1  0  0  0  0  0999 V2000
  130.4649  132.2984  154.9248 C   0  0  0  0  0  0  0  0  0  0  0  0
  130.7701  133.2254  156.0174 N   0  0  0  0  0  0  0  0  0  0  0  0
  130.6784  132.8035  157.3226 C   0  0  0  0  0  0  0  0  0  0  0  0
  130.3203  131.5787  157.5882 N   0  0  0  0  0  0  0  0  0  0  0  0
  130.1184  130.9649  156.8648 H   0  0  0  0  0  0  0  0  0  0  0  0
  130.2557  131.2811  158.5092 H   0  0  0  0  0  0  0  0  0  0  0  0
  130.9647  133.6735  158.3480 N   0  0  0  0  0  0  0  0  0  0  0  0
  130.8671  133.2240  159.7389 C   0  0  1  0  0  0  0  0  0  0  0  0
  130.1271  132.4471  159.9310 H   0  0  0  0  0  0  0  0  0  0  0  0
  132.1554  133.1919  160.5635 C   0  0  0  0  0  0  0  0  0  0  0  0
  131.0994  134.2651  160.8357 C   0  0  1  0  0  0  0  0  0  0  0  0
  130.5120  134.1733  161.7494 H   0  0  0  0  0  0  0  0  0  0  0  0
  131.4038  135.6387  160.4136 N   0  0  0  0  0  0  0  0  0  0  0  0
  131.5997  136.5155  161.5759 C   0  0  1  0  0  0  0  0  0  0  0  0
  131.8247  137.5302  161.2475 H   0  0  0  0  0  0  0  0  0  0  0  0
  130.3647  136.5097  162.4431 C   0  0  0  0  0  0  0  0  0  0  0  0
  129.0598  136.8767  162.1955 C   0  0  0  0  0  0  0  0  0  0  0  0
  128.1063  136.7701  163.1991 C   0  0  0  0  0  0  0  0  0  0  0  0
  126.8193  137.1310  162.9551 O   0  0  0  0  0  0  0  0  0  0  0  0
  128.4684  136.2941  164.4522 C   0  0  0  0  0  0  0  0  0  0  0  0
  129.7724  135.9270  164.7040 C   0  0  0  0  0  0  0  0  0  0  0  0
  130.7352  136.0320  163.6976 C   0  0  0  0  0  0  0  0  0  0  0  0
  132.1841  135.7118  163.6958 C   0  0  0  0  0  0  0  0  0  0  0  0
  133.0166  135.2128  164.6996 C   0  0  0  0  0  0  0  0  0  0  0  0
  134.3544  134.9984  164.4414 C   0  0  0  0  0  0  0  0  0  0  0  0
  134.8764  135.2767  163.1909 C   0  0  0  0  0  0  0  0  0  0  0  0
  136.3393  135.0403  162.9167 C   0  0  0  0  0  0  0  0  0  0  0  0
  137.1375  135.2298  164.2081 C   0  0  2  0  0  0  0  0  0  0  0  0
  136.9512  136.6623  164.7224 C   0  0  0  0  0  0  0  0  0  0  0  0
  137.6066  136.7708  166.1013 C   0  0  0  0  0  0  0  0  0  0  0  0
  138.9944  136.1984  166.0538 C   0  0  0  0  0  0  0  0  0  0  0  0
  139.7649  136.4868  166.9449 O   0  0  0  0  0  0  0  0  0  0  0  0
  139.4243  135.3895  165.0847 N   0  0  0  0  0  0  0  0  0  0  0  0
  138.6236  134.9983  163.9313 C   0  0  0  0  0  0  0  0  0  0  0  0
  134.0577  135.7722  162.1919 C   0  0  0  0  0  0  0  0  0  0  0  0
  132.7189  135.9893  162.4408 C   0  0  0  0  0  0  0  0  0  0  0  0
  130.5918  132.8080  153.9698 H   0  0  0  0  0  0  0  0  0  0  0  0
  131.1405  131.4444  154.9735 H   0  0  0  0  0  0  0  0  0  0  0  0
  129.4354  131.9528  155.0183 H   0  0  0  0  0  0  0  0  0  0  0  0
  131.0366  134.1369  155.8199 H   0  0  0  0  0  0  0  0  0  0  0  0
  131.2312  134.5850  158.1505 H   0  0  0  0  0  0  0  0  0  0  0  0
  133.0760  133.5052  160.0712 H   0  0  0  0  0  0  0  0  0  0  0  0
  132.2630  132.3939  161.2981 H   0  0  0  0  0  0  0  0  0  0  0  0
  130.6826  135.9987  159.8066 H   0  0  0  0  0  0  0  0  0  0  0  0
  128.7787  137.2472  161.2207 H   0  0  0  0  0  0  0  0  0  0  0  0
  126.6640  137.4494  162.0553 H   0  0  0  0  0  0  0  0  0  0  0  0
  127.7256  136.2117  165.2321 H   0  0  0  0  0  0  0  0  0  0  0  0
  130.0502  135.5576  165.6801 H   0  0  0  0  0  0  0  0  0  0  0  0
  132.6133  134.9949  165.6774 H   0  0  0  0  0  0  0  0  0  0  0  0
  134.9969  134.6120  165.2188 H   0  0  0  0  0  0  0  0  0  0  0  0
  136.4803  134.0242  162.5482 H   0  0  0  0  0  0  0  0  0  0  0  0
  136.6878  135.7502  162.1666 H   0  0  0  0  0  0  0  0  0  0  0  0
  136.7908  134.5208  164.9598 H   0  0  0  0  0  0  0  0  0  0  0  0
  137.4247  137.3636  164.0352 H   0  0  0  0  0  0  0  0  0  0  0  0
  135.8878  136.8880  164.8027 H   0  0  0  0  0  0  0  0  0  0  0  0
  137.0120  136.2190  166.8292 H   0  0  0  0  0  0  0  0  0  0  0  0
  137.6574  137.8191  166.3952 H   0  0  0  0  0  0  0  0  0  0  0  0
  140.3266  135.0399  165.1513 H   0  0  0  0  0  0  0  0  0  0  0  0
  138.7902  133.9424  163.7184 H   0  0  0  0  0  0  0  0  0  0  0  0
  138.9261  135.5919  163.0686 H   0  0  0  0  0  0  0  0  0  0  0  0
  134.4673  135.9895  161.2164 H   0  0  0  0  0  0  0  0  0  0  0  0
  1  2  1  0
  1 37  1  0
  1 38  1  0
  1 39  1  0
  2  3  1  0
  2 40  1  0
  3  4  2  0
  3  7  1  0
  4  5  1  0
  4  6  1  0
  7  8  1  0
  7 41  1  0
  8  9  1  1
  8 11  1  0
  8 10  1  0
 10 11  1  0
 10 42  1  0
 10 43  1  0
 11 12  1  1
 11 13  1  0
 13 14  1  0
 13 44  1  0
 14 15  1  6
 14 36  1  0
 14 16  1  0
 16 22  1  0
 16 17  2  0
 17 18  1  0
 17 45  1  0
 18 19  1  0
 18 20  2  0
 19 46  1  0
 20 21  1  0
 20 47  1  0
 21 22  2  0
 21 48  1  0
 22 23  1  0
 23 36  2  0
 23 24  1  0
 24 25  2  0
 24 49  1  0
 25 26  1  0
 25 50  1  0
 26 27  1  0
 26 35  2  0
 27 28  1  0
 27 51  1  0
 27 52  1  0
 28 34  1  0
 28 29  1  0
 28 53  1  1
 29 30  1  0
 29 54  1  0
 29 55  1  0
 30 31  1  0
 30 56  1  0
 30 57  1  0
 31 32  2  0
 31 33  1  0
 33 34  1  0
 33 58  1  0
 34 59  1  0
 34 60  1  0
 35 36  1  0
 35 61  1  0
M  CHG  1   4   1
M  END
>  <DOCK_score>  (1) 
-47.264751

>  <SMILES>  (1) 
CNC(=[NH2+])N[C@H]1C[C@H]1N[C@H]1c2cc(O)ccc2-c2ccc(CC3CCC(=O)NC3)cc21

$$$$
