CC1=CCC(C[NH2+][C@@H](C#CCc2cc(C(F)F)on2)c2ccc(F)cc2)CC1
     RDKit          3D

 52 54  0  0  1  0  0  0  0  0999 V2000
  130.7271  129.7207  158.1211 C   0  0  0  0  0  0  0  0  0  0  0  0
  130.4772  131.1622  158.4829 C   0  0  0  0  0  0  0  0  0  0  0  0
  129.4914  131.4259  159.2793 C   0  0  0  0  0  0  0  0  0  0  0  0
  129.1144  132.8097  159.7208 C   0  0  0  0  0  0  0  0  0  0  0  0
  130.2701  133.7787  159.4619 C   0  0  2  0  0  0  0  0  0  0  0  0
  129.7899  135.2174  159.6635 C   0  0  0  0  0  0  0  0  0  0  0  0
  130.9475  136.0929  159.8903 N   0  0  0  0  0  0  0  0  0  0  0  0
  131.4453  135.7861  160.7126 H   0  0  0  0  0  0  0  0  0  0  0  0
  131.5617  136.0522  159.0907 H   0  0  0  0  0  0  0  0  0  0  0  0
  130.4864  137.4742  160.0838 C   0  0  1  0  0  0  0  0  0  0  0  0
  129.9487  137.8056  159.1954 H   0  0  0  0  0  0  0  0  0  0  0  0
  129.5905  137.5335  161.2502 C   0  0  0  0  0  0  0  0  0  0  0  0
  128.8760  137.5809  162.1806 C   0  0  0  0  0  0  0  0  0  0  0  0
  127.9800  137.6401  163.3469 C   0  0  0  0  0  0  0  0  0  0  0  0
  127.5071  139.0571  163.5456 C   0  0  0  0  0  0  0  0  0  0  0  0
  128.1328  140.0576  164.3243 C   0  0  0  0  0  0  0  0  0  0  0  0
  127.3274  141.1369  164.1794 C   0  0  0  0  0  0  0  0  0  0  0  0
  127.5197  142.4964  164.8004 C   0  0  0  0  0  0  0  0  0  0  0  0
  126.2722  143.0925  165.0137 F   0  0  0  0  0  0  0  0  0  0  0  0
  128.1866  142.3603  166.0229 F   0  0  0  0  0  0  0  0  0  0  0  0
  126.3248  140.7569  163.3748 O   0  0  0  0  0  0  0  0  0  0  0  0
  126.4445  139.6042  163.0296 N   0  0  0  0  0  0  0  0  0  0  0  0
  131.6741  138.3722  160.3164 C   0  0  0  0  0  0  0  0  0  0  0  0
  132.1302  138.5950  161.6023 C   0  0  0  0  0  0  0  0  0  0  0  0
  133.2221  139.4145  161.8163 C   0  0  0  0  0  0  0  0  0  0  0  0
  133.8529  140.0209  160.7433 C   0  0  0  0  0  0  0  0  0  0  0  0
  134.9176  140.8260  160.9518 F   0  0  0  0  0  0  0  0  0  0  0  0
  133.3920  139.8012  159.4563 C   0  0  0  0  0  0  0  0  0  0  0  0
  132.3030  138.9771  159.2442 C   0  0  0  0  0  0  0  0  0  0  0  0
  130.7488  133.5880  158.0172 C   0  0  0  0  0  0  0  0  0  0  0  0
  131.3904  132.2018  157.9022 C   0  0  0  0  0  0  0  0  0  0  0  0
  129.9918  129.0884  158.6188 H   0  0  0  0  0  0  0  0  0  0  0  0
  130.6414  129.5969  157.0415 H   0  0  0  0  0  0  0  0  0  0  0  0
  131.7288  129.4341  158.4413 H   0  0  0  0  0  0  0  0  0  0  0  0
  128.9040  130.5986  159.6493 H   0  0  0  0  0  0  0  0  0  0  0  0
  128.2357  133.1390  159.1663 H   0  0  0  0  0  0  0  0  0  0  0  0
  128.8862  132.7993  160.7865 H   0  0  0  0  0  0  0  0  0  0  0  0
  131.0880  133.5657  160.1501 H   0  0  0  0  0  0  0  0  0  0  0  0
  129.2522  135.5489  158.7751 H   0  0  0  0  0  0  0  0  0  0  0  0
  129.1264  135.2614  160.5272 H   0  0  0  0  0  0  0  0  0  0  0  0
  127.1210  136.9907  163.1787 H   0  0  0  0  0  0  0  0  0  0  0  0
  128.5176  137.3088  164.2353 H   0  0  0  0  0  0  0  0  0  0  0  0
  129.0427  139.9796  164.9008 H   0  0  0  0  0  0  0  0  0  0  0  0
  128.1114  143.1211  164.1314 H   0  0  0  0  0  0  0  0  0  0  0  0
  131.6355  138.1251  162.4395 H   0  0  0  0  0  0  0  0  0  0  0  0
  133.5809  139.5851  162.8206 H   0  0  0  0  0  0  0  0  0  0  0  0
  133.8829  140.2739  158.6185 H   0  0  0  0  0  0  0  0  0  0  0  0
  131.9435  138.8053  158.2404 H   0  0  0  0  0  0  0  0  0  0  0  0
  129.8999  133.6603  157.3373 H   0  0  0  0  0  0  0  0  0  0  0  0
  131.4825  134.3553  157.7700 H   0  0  0  0  0  0  0  0  0  0  0  0
  132.3376  132.1925  158.4415 H   0  0  0  0  0  0  0  0  0  0  0  0
  131.5730  131.9762  156.8516 H   0  0  0  0  0  0  0  0  0  0  0  0
  1  2  1  0
  1 32  1  0
  1 33  1  0
  1 34  1  0
  2 31  1  0
  2  3  2  0
  3  4  1  0
  3 35  1  0
  4  5  1  0
  4 36  1  0
  4 37  1  0
  5  6  1  0
  5 30  1  0
  5 38  1  1
  6  7  1  0
  6 39  1  0
  6 40  1  0
  7  8  1  0
  7  9  1  0
  7 10  1  0
 10 11  1  6
 10 12  1  0
 10 23  1  0
 12 13  3  0
 13 14  1  0
 14 15  1  0
 14 41  1  0
 14 42  1  0
 15 22  2  0
 15 16  1  0
 16 17  2  0
 16 43  1  0
 17 18  1  0
 17 21  1  0
 18 19  1  0
 18 20  1  0
 18 44  1  0
 21 22  1  0
 23 29  1  0
 23 24  2  0
 24 25  1  0
 24 45  1  0
 25 26  2  0
 25 46  1  0
 26 27  1  0
 26 28  1  0
 28 29  2  0
 28 47  1  0
 29 48  1  0
 30 31  1  0
 30 49  1  0
 30 50  1  0
 31 51  1  0
 31 52  1  0
M  CHG  1   7   1
M  END
>  <DOCK_score>  (1) 
-44.217354

>  <SMILES>  (1) 
CC1=CCC(C[NH2+][C@@H](C#CCc2cc(C(F)F)on2)c2ccc(F)cc2)CC1

$$$$
