C=C1CCC(C[N@H+](Cc2ccc(-c3ccccc3)[nH]2)C2c3cc(O)ccc3-c3ccc(O)cc32)CC1
     RDKit          3D

 69 74  0  0  1  0  0  0  0  0999 V2000
  132.2102  140.2728  162.9476 C   0  0  0  0  0  0  0  0  0  0  0  0
  131.7653  139.0659  162.6996 C   0  0  0  0  0  0  0  0  0  0  0  0
  132.6987  137.9801  162.2118 C   0  0  0  0  0  0  0  0  0  0  0  0
  132.0927  137.3444  160.9563 C   0  0  0  0  0  0  0  0  0  0  0  0
  130.6735  136.8640  161.2642 C   0  0  0  0  0  0  0  0  0  0  0  0
  130.1022  136.1473  160.0393 C   0  0  0  0  0  0  0  0  0  0  0  0
  128.9839  135.2885  160.4516 N   0  0  2  0  0  0  0  0  0  0  0  0
  128.4315  135.7667  161.1475 H   0  0  0  0  0  0  0  0  0  0  0  0
  129.5091  134.0388  161.0175 C   0  0  0  0  0  0  0  0  0  0  0  0
  129.9394  134.2744  162.4425 C   0  0  0  0  0  0  0  0  0  0  0  0
  131.0938  133.8481  162.9991 C   0  0  0  0  0  0  0  0  0  0  0  0
  131.1056  134.2754  164.3369 C   0  0  0  0  0  0  0  0  0  0  0  0
  129.9459  134.9558  164.5560 C   0  0  0  0  0  0  0  0  0  0  0  0
  129.5333  135.5851  165.8288 C   0  0  0  0  0  0  0  0  0  0  0  0
  128.1794  135.6967  166.1488 C   0  0  0  0  0  0  0  0  0  0  0  0
  127.8013  136.2793  167.3409 C   0  0  0  0  0  0  0  0  0  0  0  0
  128.7604  136.7635  168.2126 C   0  0  0  0  0  0  0  0  0  0  0  0
  130.1041  136.6609  167.8988 C   0  0  0  0  0  0  0  0  0  0  0  0
  130.4957  136.0750  166.7128 C   0  0  0  0  0  0  0  0  0  0  0  0
  129.2317  134.9587  163.3853 N   0  0  0  0  0  0  0  0  0  0  0  0
  128.3663  135.3758  163.2513 H   0  0  0  0  0  0  0  0  0  0  0  0
  128.1448  134.9833  159.2852 C   0  0  0  0  0  0  0  0  0  0  0  0
  126.8008  134.4623  159.7323 C   0  0  0  0  0  0  0  0  0  0  0  0
  125.7985  135.0237  160.4934 C   0  0  0  0  0  0  0  0  0  0  0  0
  124.6408  134.3039  160.7566 C   0  0  0  0  0  0  0  0  0  0  0  0
  123.6521  134.8573  161.5067 O   0  0  0  0  0  0  0  0  0  0  0  0
  124.4934  133.0185  160.2525 C   0  0  0  0  0  0  0  0  0  0  0  0
  125.4912  132.4555  159.4866 C   0  0  0  0  0  0  0  0  0  0  0  0
  126.6600  133.1737  159.2235 C   0  0  0  0  0  0  0  0  0  0  0  0
  127.8721  132.8140  158.4467 C   0  0  0  0  0  0  0  0  0  0  0  0
  128.2056  131.6488  157.7524 C   0  0  0  0  0  0  0  0  0  0  0  0
  129.4149  131.5583  157.0977 C   0  0  0  0  0  0  0  0  0  0  0  0
  130.3056  132.6230  157.1254 C   0  0  0  0  0  0  0  0  0  0  0  0
  131.4971  132.5294  156.4789 O   0  0  0  0  0  0  0  0  0  0  0  0
  129.9786  133.7834  157.8143 C   0  0  0  0  0  0  0  0  0  0  0  0
  128.7703  133.8778  158.4702 C   0  0  0  0  0  0  0  0  0  0  0  0
  129.7858  138.0597  161.6137 C   0  0  0  0  0  0  0  0  0  0  0  0
  130.3051  138.7222  162.8941 C   0  0  0  0  0  0  0  0  0  0  0  0
  133.2368  140.5257  162.7276 H   0  0  0  0  0  0  0  0  0  0  0  0
  131.5503  141.0149  163.3721 H   0  0  0  0  0  0  0  0  0  0  0  0
  132.8150  137.2220  162.9863 H   0  0  0  0  0  0  0  0  0  0  0  0
  133.6696  138.4129  161.9708 H   0  0  0  0  0  0  0  0  0  0  0  0
  132.7041  136.4969  160.6465 H   0  0  0  0  0  0  0  0  0  0  0  0
  132.0608  138.0822  160.1544 H   0  0  0  0  0  0  0  0  0  0  0  0
  130.6996  136.1745  162.1080 H   0  0  0  0  0  0  0  0  0  0  0  0
  130.8795  135.5362  159.5804 H   0  0  0  0  0  0  0  0  0  0  0  0
  129.7475  136.8848  159.3193 H   0  0  0  0  0  0  0  0  0  0  0  0
  128.7322  133.2746  160.9941 H   0  0  0  0  0  0  0  0  0  0  0  0
  130.3645  133.7052  160.4301 H   0  0  0  0  0  0  0  0  0  0  0  0
  131.8686  133.2813  162.5043 H   0  0  0  0  0  0  0  0  0  0  0  0
  131.8892  134.0971  165.0585 H   0  0  0  0  0  0  0  0  0  0  0  0
  127.4296  135.3239  165.4668 H   0  0  0  0  0  0  0  0  0  0  0  0
  126.7542  136.3620  167.5919 H   0  0  0  0  0  0  0  0  0  0  0  0
  128.4591  137.2229  169.1423 H   0  0  0  0  0  0  0  0  0  0  0  0
  130.8478  137.0402  168.5839 H   0  0  0  0  0  0  0  0  0  0  0  0
  131.5448  135.9953  166.4691 H   0  0  0  0  0  0  0  0  0  0  0  0
  128.0164  135.8752  158.6720 H   0  0  0  0  0  0  0  0  0  0  0  0
  125.9138  136.0233  160.8855 H   0  0  0  0  0  0  0  0  0  0  0  0
  123.8452  135.7542  161.8121 H   0  0  0  0  0  0  0  0  0  0  0  0
  123.5920  132.4599  160.4578 H   0  0  0  0  0  0  0  0  0  0  0  0
  125.3709  131.4571  159.0927 H   0  0  0  0  0  0  0  0  0  0  0  0
  127.5155  130.8184  157.7286 H   0  0  0  0  0  0  0  0  0  0  0  0
  129.6707  130.6563  156.5615 H   0  0  0  0  0  0  0  0  0  0  0  0
  132.0491  133.3198  156.5548 H   0  0  0  0  0  0  0  0  0  0  0  0
  130.6709  134.6119  157.8357 H   0  0  0  0  0  0  0  0  0  0  0  0
  129.8085  138.7805  160.7963 H   0  0  0  0  0  0  0  0  0  0  0  0
  128.7622  137.7190  161.7700 H   0  0  0  0  0  0  0  0  0  0  0  0
  130.1996  138.0328  163.7317 H   0  0  0  0  0  0  0  0  0  0  0  0
  129.7385  139.6315  163.0948 H   0  0  0  0  0  0  0  0  0  0  0  0
  1  2  2  0
  1 39  1  0
  1 40  1  0
  2 38  1  0
  2  3  1  0
  3  4  1  0
  3 41  1  0
  3 42  1  0
  4  5  1  0
  4 43  1  0
  4 44  1  0
  5  6  1  0
  5 37  1  0
  5 45  1  0
  6  7  1  0
  6 46  1  0
  6 47  1  0
  7  8  1  1
  7  9  1  0
  7 22  1  0
  9 10  1  0
  9 48  1  0
  9 49  1  0
 10 20  1  0
 10 11  2  0
 11 12  1  0
 11 50  1  0
 12 13  2  0
 12 51  1  0
 13 14  1  0
 13 20  1  0
 14 19  1  0
 14 15  2  0
 15 16  1  0
 15 52  1  0
 16 17  2  0
 16 53  1  0
 17 18  1  0
 17 54  1  0
 18 19  2  0
 18 55  1  0
 19 56  1  0
 20 21  1  0
 22 36  1  0
 22 23  1  0
 22 57  1  0
 23 29  1  0
 23 24  2  0
 24 25  1  0
 24 58  1  0
 25 26  1  0
 25 27  2  0
 26 59  1  0
 27 28  1  0
 27 60  1  0
 28 29  2  0
 28 61  1  0
 29 30  1  0
 30 36  2  0
 30 31  1  0
 31 32  2  0
 31 62  1  0
 32 33  1  0
 32 63  1  0
 33 34  1  0
 33 35  2  0
 34 64  1  0
 35 36  1  0
 35 65  1  0
 37 38  1  0
 37 66  1  0
 37 67  1  0
 38 68  1  0
 38 69  1  0
M  CHG  1   7   1
M  END
>  <DOCK_score>  (1) 
-46.820175

>  <SMILES>  (1) 
C=C1CCC(C[N@H+](Cc2ccc(-c3ccccc3)[nH]2)C2c3cc(O)ccc3-c3ccc(O)cc32)CC1

$$$$
