Cc1ccc(Nc2ccc(Nc3[nH]cc(-c4ccc(N)cc4)[nH+]3)cc2)cc1
     RDKit          3D

 49 52  0  0  1  0  0  0  0  0999 V2000
  127.5745  135.6135  167.4796 C   0  0  0  0  0  0  0  0  0  0  0  0
  127.2757  135.8551  166.0225 C   0  0  0  0  0  0  0  0  0  0  0  0
  127.7880  135.0018  165.0624 C   0  0  0  0  0  0  0  0  0  0  0  0
  127.5165  135.2204  163.7262 C   0  0  0  0  0  0  0  0  0  0  0  0
  126.7271  136.2990  163.3469 C   0  0  0  0  0  0  0  0  0  0  0  0
  126.4497  136.5232  161.9956 N   0  0  0  0  0  0  0  0  0  0  0  0
  127.3749  136.1385  161.0184 C   0  0  0  0  0  0  0  0  0  0  0  0
  127.0110  135.2229  160.0397 C   0  0  0  0  0  0  0  0  0  0  0  0
  127.9250  134.8396  159.0786 C   0  0  0  0  0  0  0  0  0  0  0  0
  129.2057  135.3768  159.0849 C   0  0  0  0  0  0  0  0  0  0  0  0
  130.1313  134.9918  158.1072 N   0  0  0  0  0  0  0  0  0  0  0  0
  130.0655  133.7245  157.5521 C   0  0  0  0  0  0  0  0  0  0  0  0
  129.6133  132.6057  158.1818 N   0  0  0  0  0  0  0  0  0  0  0  0
  129.2817  132.5527  159.0918 H   0  0  0  0  0  0  0  0  0  0  0  0
  129.7108  131.5654  157.2887 C   0  0  0  0  0  0  0  0  0  0  0  0
  130.2264  132.0771  156.1436 C   0  0  0  0  0  0  0  0  0  0  0  0
  130.5133  131.3197  154.9006 C   0  0  0  0  0  0  0  0  0  0  0  0
  129.8771  131.6660  153.7096 C   0  0  0  0  0  0  0  0  0  0  0  0
  130.1492  130.9640  152.5544 C   0  0  0  0  0  0  0  0  0  0  0  0
  131.0481  129.9048  152.5791 C   0  0  0  0  0  0  0  0  0  0  0  0
  131.3177  129.1915  151.4087 N   0  0  0  0  0  0  0  0  0  0  0  0
  131.6798  129.5541  153.7668 C   0  0  0  0  0  0  0  0  0  0  0  0
  131.4151  130.2569  154.9233 C   0  0  0  0  0  0  0  0  0  0  0  0
  130.4336  133.4036  156.3355 N   0  0  0  0  0  0  0  0  0  0  0  0
  130.7966  134.0170  155.6776 H   0  0  0  0  0  0  0  0  0  0  0  0
  129.5687  136.2956  160.0612 C   0  0  0  0  0  0  0  0  0  0  0  0
  128.6562  136.6753  161.0251 C   0  0  0  0  0  0  0  0  0  0  0  0
  126.2182  137.1573  164.3136 C   0  0  0  0  0  0  0  0  0  0  0  0
  126.4891  136.9294  165.6485 C   0  0  0  0  0  0  0  0  0  0  0  0
  128.4860  136.1435  167.7562 H   0  0  0  0  0  0  0  0  0  0  0  0
  126.7447  135.9770  168.0858 H   0  0  0  0  0  0  0  0  0  0  0  0
  127.7090  134.5455  167.6507 H   0  0  0  0  0  0  0  0  0  0  0  0
  128.4016  134.1636  165.3580 H   0  0  0  0  0  0  0  0  0  0  0  0
  127.9169  134.5536  162.9770 H   0  0  0  0  0  0  0  0  0  0  0  0
  125.6168  136.9456  161.7354 H   0  0  0  0  0  0  0  0  0  0  0  0
  126.0137  134.8085  160.0322 H   0  0  0  0  0  0  0  0  0  0  0  0
  127.6427  134.1254  158.3193 H   0  0  0  0  0  0  0  0  0  0  0  0
  130.8185  135.6124  157.8187 H   0  0  0  0  0  0  0  0  0  0  0  0
  129.4333  130.5369  157.4663 H   0  0  0  0  0  0  0  0  0  0  0  0
  129.1748  132.4863  153.6908 H   0  0  0  0  0  0  0  0  0  0  0  0
  129.6602  131.2350  151.6304 H   0  0  0  0  0  0  0  0  0  0  0  0
  131.9458  128.4516  151.4255 H   0  0  0  0  0  0  0  0  0  0  0  0
  130.8779  129.4349  150.5800 H   0  0  0  0  0  0  0  0  0  0  0  0
  132.3782  128.7304  153.7839 H   0  0  0  0  0  0  0  0  0  0  0  0
  131.9063  129.9845  155.8457 H   0  0  0  0  0  0  0  0  0  0  0  0
  130.5646  136.7134  160.0659 H   0  0  0  0  0  0  0  0  0  0  0  0
  128.9385  137.3900  161.7842 H   0  0  0  0  0  0  0  0  0  0  0  0
  125.6079  137.9993  164.0218 H   0  0  0  0  0  0  0  0  0  0  0  0
  126.0902  137.5937  166.4009 H   0  0  0  0  0  0  0  0  0  0  0  0
  1  2  1  0
  1 30  1  0
  1 31  1  0
  1 32  1  0
  2 29  2  0
  2  3  1  0
  3  4  2  0
  3 33  1  0
  4  5  1  0
  4 34  1  0
  5  6  1  0
  5 28  2  0
  6  7  1  0
  6 35  1  0
  7 27  1  0
  7  8  2  0
  8  9  1  0
  8 36  1  0
  9 10  2  0
  9 37  1  0
 10 11  1  0
 10 26  1  0
 11 38  1  0
 12 11  1  0
 12 24  2  0
 12 13  1  0
 13 14  1  0
 13 15  1  0
 15 16  2  0
 15 39  1  0
 16 17  1  0
 16 24  1  0
 17 23  1  0
 17 18  2  0
 18 19  1  0
 18 40  1  0
 19 20  2  0
 19 41  1  0
 20 21  1  0
 20 22  1  0
 21 42  1  0
 21 43  1  0
 22 23  2  0
 22 44  1  0
 23 45  1  0
 24 25  1  0
 26 27  2  0
 26 46  1  0
 27 47  1  0
 28 29  1  0
 28 48  1  0
 29 49  1  0
M  CHG  1  24   1
M  END
>  <DOCK_score>  (1) 
-58.137726

>  <SMILES>  (1) 
Cc1ccc(Nc2ccc(Nc3[nH]cc(-c4ccc(N)cc4)[nH+]3)cc2)cc1

$$$$
