c1ccc(CC[C@H](Cc2ccccc2)N2CC[NH+](Cc3cccc4ccccc34)CC2)cc1
     RDKit          3D

 68 72  0  0  1  0  0  0  0  0999 V2000
  128.6600  142.0901  165.3298 C   0  0  0  0  0  0  0  0  0  0  0  0
  129.9410  141.7287  165.7030 C   0  0  0  0  0  0  0  0  0  0  0  0
  130.5878  140.6991  165.0455 C   0  0  0  0  0  0  0  0  0  0  0  0
  129.9538  140.0310  164.0147 C   0  0  0  0  0  0  0  0  0  0  0  0
  130.6592  138.9089  163.2976 C   0  0  0  0  0  0  0  0  0  0  0  0
  131.4453  139.4750  162.1132 C   0  0  0  0  0  0  0  0  0  0  0  0
  132.1614  138.3358  161.3851 C   0  0  2  0  0  0  0  0  0  0  0  0
  132.8468  137.8395  162.0722 H   0  0  0  0  0  0  0  0  0  0  0  0
  132.9476  138.9020  160.2009 C   0  0  0  0  0  0  0  0  0  0  0  0
  134.2446  139.4899  160.6941 C   0  0  0  0  0  0  0  0  0  0  0  0
  134.3036  140.8203  161.0648 C   0  0  0  0  0  0  0  0  0  0  0  0
  135.4922  141.3583  161.5217 C   0  0  0  0  0  0  0  0  0  0  0  0
  136.6243  140.5688  161.5980 C   0  0  0  0  0  0  0  0  0  0  0  0
  136.5664  139.2396  161.2223 C   0  0  0  0  0  0  0  0  0  0  0  0
  135.3767  138.7002  160.7703 C   0  0  0  0  0  0  0  0  0  0  0  0
  131.1707  137.3672  160.8970 N   0  0  0  0  0  0  0  0  0  0  0  0
  130.4831  137.8746  159.7012 C   0  0  0  0  0  0  0  0  0  0  0  0
  129.4209  136.8650  159.2605 C   0  0  0  0  0  0  0  0  0  0  0  0
  130.0615  135.5761  158.9679 N   0  0  0  0  0  0  0  0  0  0  0  0
  130.7463  135.6992  158.2372 H   0  0  0  0  0  0  0  0  0  0  0  0
  129.0439  134.6125  158.5276 C   0  0  0  0  0  0  0  0  0  0  0  0
  129.7086  133.4883  157.7757 C   0  0  0  0  0  0  0  0  0  0  0  0
  129.8813  133.5744  156.4282 C   0  0  0  0  0  0  0  0  0  0  0  0
  130.4939  132.5453  155.7162 C   0  0  0  0  0  0  0  0  0  0  0  0
  130.9376  131.4238  156.3474 C   0  0  0  0  0  0  0  0  0  0  0  0
  130.7769  131.2988  157.7376 C   0  0  0  0  0  0  0  0  0  0  0  0
  131.2224  130.1564  158.4244 C   0  0  0  0  0  0  0  0  0  0  0  0
  131.0500  130.0707  159.7716 C   0  0  0  0  0  0  0  0  0  0  0  0
  130.4372  131.1002  160.4838 C   0  0  0  0  0  0  0  0  0  0  0  0
  129.9933  132.2212  159.8526 C   0  0  0  0  0  0  0  0  0  0  0  0
  130.1536  132.3458  158.4620 C   0  0  0  0  0  0  0  0  0  0  0  0
  130.7231  135.0705  160.1780 C   0  0  0  0  0  0  0  0  0  0  0  0
  131.7962  136.0651  160.6263 C   0  0  0  0  0  0  0  0  0  0  0  0
  128.6749  140.3960  163.6379 C   0  0  0  0  0  0  0  0  0  0  0  0
  128.0259  141.4221  164.2989 C   0  0  0  0  0  0  0  0  0  0  0  0
  128.1547  142.8948  165.8432 H   0  0  0  0  0  0  0  0  0  0  0  0
  130.4366  142.2508  166.5081 H   0  0  0  0  0  0  0  0  0  0  0  0
  131.5888  140.4169  165.3369 H   0  0  0  0  0  0  0  0  0  0  0  0
  129.9241  138.1901  162.9354 H   0  0  0  0  0  0  0  0  0  0  0  0
  131.3446  138.4127  163.9846 H   0  0  0  0  0  0  0  0  0  0  0  0
  132.1804  140.1937  162.4753 H   0  0  0  0  0  0  0  0  0  0  0  0
  130.7598  139.9712  161.4260 H   0  0  0  0  0  0  0  0  0  0  0  0
  133.1580  138.1036  159.4894 H   0  0  0  0  0  0  0  0  0  0  0  0
  132.3592  139.6786  159.7122 H   0  0  0  0  0  0  0  0  0  0  0  0
  133.4202  141.4383  161.0009 H   0  0  0  0  0  0  0  0  0  0  0  0
  135.5373  142.3969  161.8149 H   0  0  0  0  0  0  0  0  0  0  0  0
  137.5538  140.9903  161.9508 H   0  0  0  0  0  0  0  0  0  0  0  0
  137.4510  138.6228  161.2815 H   0  0  0  0  0  0  0  0  0  0  0  0
  135.3316  137.6620  160.4765 H   0  0  0  0  0  0  0  0  0  0  0  0
  131.2064  138.0153  158.8979 H   0  0  0  0  0  0  0  0  0  0  0  0
  130.0059  138.8269  159.9326 H   0  0  0  0  0  0  0  0  0  0  0  0
  128.9194  137.2329  158.3654 H   0  0  0  0  0  0  0  0  0  0  0  0
  128.6902  136.7348  160.0588 H   0  0  0  0  0  0  0  0  0  0  0  0
  128.3281  135.1127  157.8753 H   0  0  0  0  0  0  0  0  0  0  0  0
  128.5239  134.2105  159.3971 H   0  0  0  0  0  0  0  0  0  0  0  0
  129.5386  134.4538  155.9032 H   0  0  0  0  0  0  0  0  0  0  0  0
  130.6190  132.6389  154.6476 H   0  0  0  0  0  0  0  0  0  0  0  0
  131.4146  130.6360  155.7832 H   0  0  0  0  0  0  0  0  0  0  0  0
  131.6991  129.3507  157.8858 H   0  0  0  0  0  0  0  0  0  0  0  0
  131.3931  129.1915  160.2968 H   0  0  0  0  0  0  0  0  0  0  0  0
  130.3131  131.0072  161.5526 H   0  0  0  0  0  0  0  0  0  0  0  0
  129.5205  133.0111  160.4174 H   0  0  0  0  0  0  0  0  0  0  0  0
  129.9857  134.9492  160.9715 H   0  0  0  0  0  0  0  0  0  0  0  0
  131.1871  134.1079  159.9631 H   0  0  0  0  0  0  0  0  0  0  0  0
  132.5412  136.1761  159.8383 H   0  0  0  0  0  0  0  0  0  0  0  0
  132.2771  135.6972  161.5327 H   0  0  0  0  0  0  0  0  0  0  0  0
  128.1811  139.8769  162.8297 H   0  0  0  0  0  0  0  0  0  0  0  0
  127.0253  141.7047  164.0070 H   0  0  0  0  0  0  0  0  0  0  0  0
  1 35  2  0
  1  2  1  0
  1 36  1  0
  2  3  2  0
  2 37  1  0
  3  4  1  0
  3 38  1  0
  4  5  1  0
  4 34  2  0
  5  6  1  0
  5 39  1  0
  5 40  1  0
  6  7  1  0
  6 41  1  0
  6 42  1  0
  7  8  1  1
  7  9  1  0
  7 16  1  0
  9 10  1  0
  9 43  1  0
  9 44  1  0
 10 15  1  0
 10 11  2  0
 11 12  1  0
 11 45  1  0
 12 13  2  0
 12 46  1  0
 13 14  1  0
 13 47  1  0
 14 15  2  0
 14 48  1  0
 15 49  1  0
 16 33  1  0
 16 17  1  0
 17 18  1  0
 17 50  1  0
 17 51  1  0
 18 19  1  0
 18 52  1  0
 18 53  1  0
 19 20  1  0
 19 21  1  0
 19 32  1  0
 21 22  1  0
 21 54  1  0
 21 55  1  0
 22 31  1  0
 22 23  2  0
 23 24  1  0
 23 56  1  0
 24 25  2  0
 24 57  1  0
 25 26  1  0
 25 58  1  0
 26 31  2  0
 26 27  1  0
 27 28  2  0
 27 59  1  0
 28 29  1  0
 28 60  1  0
 29 30  2  0
 29 61  1  0
 30 31  1  0
 30 62  1  0
 32 33  1  0
 32 63  1  0
 32 64  1  0
 33 65  1  0
 33 66  1  0
 34 35  1  0
 34 67  1  0
 35 68  1  0
M  CHG  1  19   1
M  END
>  <DOCK_score>  (1) 
-56.212036

>  <SMILES>  (1) 
c1ccc(CC[C@H](Cc2ccccc2)N2CC[NH+](Cc3cccc4ccccc34)CC2)cc1

$$$$
