Cc1cccc([C@H](C)Nc2cc[nH+]c(NC3c4cc(O)ccc4-c4ccc(O)cc43)c2)c1
     RDKit          3D

 58 62  0  0  1  0  0  0  0  0999 V2000
  135.1027  137.1198  163.8132 C   0  0  0  0  0  0  0  0  0  0  0  0
  134.5711  138.1496  162.8501 C   0  0  0  0  0  0  0  0  0  0  0  0
  135.3094  138.4991  161.7347 C   0  0  0  0  0  0  0  0  0  0  0  0
  134.8220  139.4442  160.8515 C   0  0  0  0  0  0  0  0  0  0  0  0
  133.5961  140.0399  161.0835 C   0  0  0  0  0  0  0  0  0  0  0  0
  132.8576  139.6897  162.1982 C   0  0  0  0  0  0  0  0  0  0  0  0
  131.5214  140.3391  162.4512 C   0  0  2  0  0  0  0  0  0  0  0  0
  131.3072  141.0519  161.6549 H   0  0  0  0  0  0  0  0  0  0  0  0
  131.5561  141.0706  163.7945 C   0  0  0  0  0  0  0  0  0  0  0  0
  130.4771  139.3121  162.4812 N   0  0  0  0  0  0  0  0  0  0  0  0
  130.2559  138.5117  161.3641 C   0  0  0  0  0  0  0  0  0  0  0  0
  130.5040  138.9945  160.0769 C   0  0  0  0  0  0  0  0  0  0  0  0
  130.2742  138.1742  158.9948 C   0  0  0  0  0  0  0  0  0  0  0  0
  129.8295  136.9415  159.1597 N   0  0  0  0  0  0  0  0  0  0  0  0
  129.6809  136.3851  158.3790 H   0  0  0  0  0  0  0  0  0  0  0  0
  129.5759  136.4453  160.3621 C   0  0  0  0  0  0  0  0  0  0  0  0
  129.1033  135.1435  160.4837 N   0  0  0  0  0  0  0  0  0  0  0  0
  128.2872  134.5578  159.4173 C   0  0  0  0  0  0  0  0  0  0  0  0
  128.9207  133.2827  158.9171 C   0  0  0  0  0  0  0  0  0  0  0  0
  130.1402  133.0252  158.3294 C   0  0  0  0  0  0  0  0  0  0  0  0
  130.4729  131.7289  157.9597 C   0  0  0  0  0  0  0  0  0  0  0  0
  131.6755  131.4746  157.3805 O   0  0  0  0  0  0  0  0  0  0  0  0
  129.5764  130.6923  158.1825 C   0  0  0  0  0  0  0  0  0  0  0  0
  128.3557  130.9456  158.7697 C   0  0  0  0  0  0  0  0  0  0  0  0
  128.0166  132.2481  159.1438 C   0  0  0  0  0  0  0  0  0  0  0  0
  126.7928  132.7924  159.7824 C   0  0  0  0  0  0  0  0  0  0  0  0
  125.6170  132.1640  160.1990 C   0  0  0  0  0  0  0  0  0  0  0  0
  124.6070  132.9030  160.7761 C   0  0  0  0  0  0  0  0  0  0  0  0
  124.7531  134.2734  160.9449 C   0  0  0  0  0  0  0  0  0  0  0  0
  123.7544  134.9984  161.5135 O   0  0  0  0  0  0  0  0  0  0  0  0
  125.9199  134.9027  160.5320 C   0  0  0  0  0  0  0  0  0  0  0  0
  126.9323  134.1672  159.9549 C   0  0  0  0  0  0  0  0  0  0  0  0
  129.7827  137.2106  161.5018 C   0  0  0  0  0  0  0  0  0  0  0  0
  133.3474  138.7481  163.0840 C   0  0  0  0  0  0  0  0  0  0  0  0
  135.6935  137.6142  164.5843 H   0  0  0  0  0  0  0  0  0  0  0  0
  134.2696  136.5914  164.2767 H   0  0  0  0  0  0  0  0  0  0  0  0
  135.7297  136.4086  163.2752 H   0  0  0  0  0  0  0  0  0  0  0  0
  136.2671  138.0340  161.5535 H   0  0  0  0  0  0  0  0  0  0  0  0
  135.3989  139.7174  159.9803 H   0  0  0  0  0  0  0  0  0  0  0  0
  133.2154  140.7784  160.3937 H   0  0  0  0  0  0  0  0  0  0  0  0
  132.3331  141.8348  163.7722 H   0  0  0  0  0  0  0  0  0  0  0  0
  130.5897  141.5404  163.9776 H   0  0  0  0  0  0  0  0  0  0  0  0
  131.7703  140.3579  164.5909 H   0  0  0  0  0  0  0  0  0  0  0  0
  129.9399  139.1899  163.2796 H   0  0  0  0  0  0  0  0  0  0  0  0
  130.8721  139.9995  159.9322 H   0  0  0  0  0  0  0  0  0  0  0  0
  130.4639  138.5428  157.9975 H   0  0  0  0  0  0  0  0  0  0  0  0
  129.3140  134.6229  161.2746 H   0  0  0  0  0  0  0  0  0  0  0  0
  128.1754  135.2678  158.5979 H   0  0  0  0  0  0  0  0  0  0  0  0
  130.8371  133.8319  158.1559 H   0  0  0  0  0  0  0  0  0  0  0  0
  132.2309  132.2581  157.2670 H   0  0  0  0  0  0  0  0  0  0  0  0
  129.8365  129.6843  157.8948 H   0  0  0  0  0  0  0  0  0  0  0  0
  127.6612  130.1366  158.9418 H   0  0  0  0  0  0  0  0  0  0  0  0
  125.4995  131.0983  160.0691 H   0  0  0  0  0  0  0  0  0  0  0  0
  123.6990  132.4147  161.0977 H   0  0  0  0  0  0  0  0  0  0  0  0
  123.9477  135.9428  161.5886 H   0  0  0  0  0  0  0  0  0  0  0  0
  126.0341  135.9685  160.6634 H   0  0  0  0  0  0  0  0  0  0  0  0
  129.5796  136.8019  162.4807 H   0  0  0  0  0  0  0  0  0  0  0  0
  132.7723  138.4778  163.9575 H   0  0  0  0  0  0  0  0  0  0  0  0
  1  2  1  0
  1 35  1  0
  1 36  1  0
  1 37  1  0
  2 34  2  0
  2  3  1  0
  3  4  2  0
  3 38  1  0
  4  5  1  0
  4 39  1  0
  5  6  2  0
  5 40  1  0
  6  7  1  0
  6 34  1  0
  7  8  1  6
  7  9  1  0
  7 10  1  0
  9 41  1  0
  9 42  1  0
  9 43  1  0
 10 11  1  0
 10 44  1  0
 11 33  1  0
 11 12  2  0
 12 13  1  0
 12 45  1  0
 13 14  2  0
 13 46  1  0
 14 15  1  0
 14 16  1  0
 16 17  1  0
 16 33  2  0
 17 18  1  0
 17 47  1  0
 18 32  1  0
 18 19  1  0
 18 48  1  0
 19 25  1  0
 19 20  2  0
 20 21  1  0
 20 49  1  0
 21 22  1  0
 21 23  2  0
 22 50  1  0
 23 24  1  0
 23 51  1  0
 24 25  2  0
 24 52  1  0
 25 26  1  0
 26 32  2  0
 26 27  1  0
 27 28  2  0
 27 53  1  0
 28 29  1  0
 28 54  1  0
 29 30  1  0
 29 31  2  0
 30 55  1  0
 31 32  1  0
 31 56  1  0
 33 57  1  0
 34 58  1  0
M  CHG  1  14   1
M  END
>  <DOCK_score>  (1) 
-44.873573

>  <SMILES>  (1) 
Cc1cccc([C@H](C)Nc2cc[nH+]c(NC3c4cc(O)ccc4-c4ccc(O)cc43)c2)c1

$$$$
