CCc1ccc(-c2c[nH]c(NC(c3ccnn3C)[C@H](C)c3ccccc3)[nH+]2)cc1
     RDKit          3D

 57 60  0  0  1  0  0  0  0  0999 V2000
  130.1006  128.7128  151.4906 C   0  0  0  0  0  0  0  0  0  0  0  0
  131.2658  129.6306  151.8649 C   0  0  0  0  0  0  0  0  0  0  0  0
  130.9452  130.3516  153.1488 C   0  0  0  0  0  0  0  0  0  0  0  0
  131.3009  129.7892  154.3616 C   0  0  0  0  0  0  0  0  0  0  0  0
  131.0149  130.4471  155.5405 C   0  0  0  0  0  0  0  0  0  0  0  0
  130.3564  131.6752  155.5082 C   0  0  0  0  0  0  0  0  0  0  0  0
  130.0414  132.3845  156.7722 C   0  0  0  0  0  0  0  0  0  0  0  0
  129.2627  131.9148  157.7781 C   0  0  0  0  0  0  0  0  0  0  0  0
  129.2401  132.8846  158.7508 N   0  0  0  0  0  0  0  0  0  0  0  0
  128.7673  132.8390  159.5966 H   0  0  0  0  0  0  0  0  0  0  0  0
  129.9995  133.9230  158.3068 C   0  0  0  0  0  0  0  0  0  0  0  0
  130.2305  135.1038  158.9916 N   0  0  0  0  0  0  0  0  0  0  0  0
  129.6334  135.3130  160.3130 C   0  0  2  0  0  0  0  0  0  0  0  0
  128.1321  135.2440  160.2025 C   0  0  0  0  0  0  0  0  0  0  0  0
  127.3952  135.5868  159.1206 C   0  0  0  0  0  0  0  0  0  0  0  0
  126.0483  135.3734  159.4321 C   0  0  0  0  0  0  0  0  0  0  0  0
  125.9792  134.9186  160.6570 N   0  0  0  0  0  0  0  0  0  0  0  0
  127.2821  134.8235  161.1626 N   0  0  0  0  0  0  0  0  0  0  0  0
  127.6559  134.3534  162.4989 C   0  0  0  0  0  0  0  0  0  0  0  0
  130.0429  136.6875  160.8457 C   0  0  2  0  0  0  0  0  0  0  0  0
  129.5987  136.8432  161.8289 H   0  0  0  0  0  0  0  0  0  0  0  0
  129.5515  137.7734  159.8865 C   0  0  0  0  0  0  0  0  0  0  0  0
  131.5441  136.7567  160.9562 C   0  0  0  0  0  0  0  0  0  0  0  0
  132.1939  137.9664  160.7968 C   0  0  0  0  0  0  0  0  0  0  0  0
  133.5707  138.0307  160.9024 C   0  0  0  0  0  0  0  0  0  0  0  0
  134.2985  136.8843  161.1591 C   0  0  0  0  0  0  0  0  0  0  0  0
  133.6492  135.6731  161.3126 C   0  0  0  0  0  0  0  0  0  0  0  0
  132.2720  135.6096  161.2112 C   0  0  0  0  0  0  0  0  0  0  0  0
  130.4767  133.6205  157.1241 N   0  0  0  0  0  0  0  0  0  0  0  0
  131.0497  134.1892  156.5864 H   0  0  0  0  0  0  0  0  0  0  0  0
  129.9955  132.2343  154.2836 C   0  0  0  0  0  0  0  0  0  0  0  0
  130.2915  131.5701  153.1106 C   0  0  0  0  0  0  0  0  0  0  0  0
  129.1971  129.3077  151.3577 H   0  0  0  0  0  0  0  0  0  0  0  0
  130.3325  128.1916  150.5617 H   0  0  0  0  0  0  0  0  0  0  0  0
  129.9423  127.9844  152.2859 H   0  0  0  0  0  0  0  0  0  0  0  0
  132.1693  129.0361  151.9975 H   0  0  0  0  0  0  0  0  0  0  0  0
  131.4241  130.3595  151.0692 H   0  0  0  0  0  0  0  0  0  0  0  0
  131.8071  128.8355  154.3856 H   0  0  0  0  0  0  0  0  0  0  0  0
  131.2968  130.0093  156.4867 H   0  0  0  0  0  0  0  0  0  0  0  0
  128.7587  130.9601  157.8096 H   0  0  0  0  0  0  0  0  0  0  0  0
  130.7876  135.7926  158.5966 H   0  0  0  0  0  0  0  0  0  0  0  0
  129.9834  134.5393  160.9964 H   0  0  0  0  0  0  0  0  0  0  0  0
  127.7791  135.9592  158.1824 H   0  0  0  0  0  0  0  0  0  0  0  0
  125.2102  135.5524  158.7748 H   0  0  0  0  0  0  0  0  0  0  0  0
  127.6775  135.1977  163.1882 H   0  0  0  0  0  0  0  0  0  0  0  0
  126.9257  133.6213  162.8439 H   0  0  0  0  0  0  0  0  0  0  0  0
  128.6424  133.8916  162.4590 H   0  0  0  0  0  0  0  0  0  0  0  0
  128.4656  137.7234  159.8066 H   0  0  0  0  0  0  0  0  0  0  0  0
  129.8432  138.7527  160.2661 H   0  0  0  0  0  0  0  0  0  0  0  0
  129.9956  137.6178  158.9034 H   0  0  0  0  0  0  0  0  0  0  0  0
  131.6256  138.8618  160.5930 H   0  0  0  0  0  0  0  0  0  0  0  0
  134.0780  138.9766  160.7822 H   0  0  0  0  0  0  0  0  0  0  0  0
  135.3745  136.9331  161.2380 H   0  0  0  0  0  0  0  0  0  0  0  0
  134.2178  134.7770  161.5126 H   0  0  0  0  0  0  0  0  0  0  0  0
  131.7648  134.6638  161.3318 H   0  0  0  0  0  0  0  0  0  0  0  0
  129.4848  133.1855  154.2527 H   0  0  0  0  0  0  0  0  0  0  0  0
  130.0127  132.0027  152.1611 H   0  0  0  0  0  0  0  0  0  0  0  0
  1  2  1  0
  1 33  1  0
  1 34  1  0
  1 35  1  0
  2  3  1  0
  2 36  1  0
  2 37  1  0
  3 32  2  0
  3  4  1  0
  4  5  2  0
  4 38  1  0
  5  6  1  0
  5 39  1  0
  6  7  1  0
  6 31  2  0
  7 29  1  0
  7  8  2  0
  8  9  1  0
  8 40  1  0
  9 10  1  0
  9 11  1  0
 11 12  1  0
 11 29  2  0
 12 13  1  0
 12 41  1  0
 13 14  1  0
 13 20  1  0
 13 42  1  1
 14 18  1  0
 14 15  2  0
 15 16  1  0
 15 43  1  0
 16 17  2  0
 16 44  1  0
 17 18  1  0
 18 19  1  0
 19 45  1  0
 19 46  1  0
 19 47  1  0
 20 21  1  1
 20 22  1  0
 20 23  1  0
 22 48  1  0
 22 49  1  0
 22 50  1  0
 23 28  1  0
 23 24  2  0
 24 25  1  0
 24 51  1  0
 25 26  2  0
 25 52  1  0
 26 27  1  0
 26 53  1  0
 27 28  2  0
 27 54  1  0
 28 55  1  0
 29 30  1  0
 31 32  1  0
 31 56  1  0
 32 57  1  0
M  CHG  1  29   1
M  END
>  <DOCK_score>  (1) 
-61.234631

>  <SMILES>  (1) 
CCc1ccc(-c2c[nH]c(NC(c3ccnn3C)[C@H](C)c3ccccc3)[nH+]2)cc1

$$$$
