O=C1CC[C@H]([NH+]=C(NCc2ncccc2Br)NC2CCCC2)CN1
     RDKit          3D

 49 51  0  0  1  0  0  0  0  0999 V2000
  123.7829  133.8594  161.7872 O   0  0  0  0  0  0  0  0  0  0  0  0
  124.9639  133.9292  161.5202 C   0  0  0  0  0  0  0  0  0  0  0  0
  125.8264  132.7305  161.7936 C   0  0  0  0  0  0  0  0  0  0  0  0
  127.3004  133.1425  161.8108 C   0  0  0  0  0  0  0  0  0  0  0  0
  127.5842  133.9814  160.5590 C   0  0  2  0  0  0  0  0  0  0  0  0
  127.2477  133.4444  159.6720 H   0  0  0  0  0  0  0  0  0  0  0  0
  129.0220  134.2437  160.4587 N   0  0  0  0  0  0  0  0  0  0  0  0
  129.5609  134.3062  161.2629 H   0  0  0  0  0  0  0  0  0  0  0  0
  129.5771  134.3934  159.2889 C   0  0  0  0  0  0  0  0  0  0  0  0
  128.8135  134.3049  158.1492 N   0  0  0  0  0  0  0  0  0  0  0  0
  129.4114  133.8204  156.9026 C   0  0  0  0  0  0  0  0  0  0  0  0
  129.9277  132.4190  157.1046 C   0  0  0  0  0  0  0  0  0  0  0  0
  129.7932  131.8379  158.2808 N   0  0  0  0  0  0  0  0  0  0  0  0
  130.2290  130.6136  158.5033 C   0  0  0  0  0  0  0  0  0  0  0  0
  130.8429  129.8878  157.4997 C   0  0  0  0  0  0  0  0  0  0  0  0
  131.0080  130.4669  156.2512 C   0  0  0  0  0  0  0  0  0  0  0  0
  130.5366  131.7569  156.0544 C   0  0  0  0  0  0  0  0  0  0  0  0
  130.7252  132.5992  154.3718 Br  0  0  0  0  0  0  0  0  0  0  0  0
  130.9264  134.6398  159.1950 N   0  0  0  0  0  0  0  0  0  0  0  0
  131.7402  134.7342  160.4094 C   0  0  0  0  0  0  0  0  0  0  0  0
  131.2675  135.9231  161.2712 C   0  0  0  0  0  0  0  0  0  0  0  0
  132.5756  136.5058  161.8636 C   0  0  0  0  0  0  0  0  0  0  0  0
  133.5763  136.3633  160.6900 C   0  0  0  0  0  0  0  0  0  0  0  0
  133.2077  135.0135  160.0402 C   0  0  0  0  0  0  0  0  0  0  0  0
  126.8279  135.3053  160.6749 C   0  0  0  0  0  0  0  0  0  0  0  0
  125.4273  135.0661  160.9993 N   0  0  0  0  0  0  0  0  0  0  0  0
  125.5582  132.3045  162.7604 H   0  0  0  0  0  0  0  0  0  0  0  0
  125.6678  131.9852  161.0143 H   0  0  0  0  0  0  0  0  0  0  0  0
  127.9301  132.2529  161.8071 H   0  0  0  0  0  0  0  0  0  0  0  0
  127.5053  133.7341  162.7032 H   0  0  0  0  0  0  0  0  0  0  0  0
  127.8787  134.5633  158.1704 H   0  0  0  0  0  0  0  0  0  0  0  0
  130.2359  134.4737  156.6172 H   0  0  0  0  0  0  0  0  0  0  0  0
  128.6583  133.8200  156.1145 H   0  0  0  0  0  0  0  0  0  0  0  0
  130.1008  130.1708  159.4799 H   0  0  0  0  0  0  0  0  0  0  0  0
  131.1932  128.8835  157.6871 H   0  0  0  0  0  0  0  0  0  0  0  0
  131.4879  129.9252  155.4495 H   0  0  0  0  0  0  0  0  0  0  0  0
  131.3396  134.7511  158.3244 H   0  0  0  0  0  0  0  0  0  0  0  0
  131.6685  133.8081  160.9796 H   0  0  0  0  0  0  0  0  0  0  0  0
  130.7647  136.6666  160.6527 H   0  0  0  0  0  0  0  0  0  0  0  0
  130.6076  135.5786  162.0673 H   0  0  0  0  0  0  0  0  0  0  0  0
  132.9030  135.9217  162.7236 H   0  0  0  0  0  0  0  0  0  0  0  0
  132.4466  137.5534  162.1362 H   0  0  0  0  0  0  0  0  0  0  0  0
  134.6003  136.3404  161.0625 H   0  0  0  0  0  0  0  0  0  0  0  0
  133.4490  137.1775  159.9765 H   0  0  0  0  0  0  0  0  0  0  0  0
  133.8481  134.2234  160.4320 H   0  0  0  0  0  0  0  0  0  0  0  0
  133.3144  135.0789  158.9574 H   0  0  0  0  0  0  0  0  0  0  0  0
  127.2809  135.9116  161.4594 H   0  0  0  0  0  0  0  0  0  0  0  0
  126.8920  135.8410  159.7278 H   0  0  0  0  0  0  0  0  0  0  0  0
  124.7923  135.7785  160.8256 H   0  0  0  0  0  0  0  0  0  0  0  0
  1  2  2  0
  2 26  1  0
  2  3  1  0
  3  4  1  0
  3 27  1  0
  3 28  1  0
  4  5  1  0
  4 29  1  0
  4 30  1  0
  5  6  1  6
  5  7  1  0
  5 25  1  0
  7  8  1  0
  9  7  2  0
  9 10  1  0
  9 19  1  0
 10 11  1  0
 10 31  1  0
 11 12  1  0
 11 32  1  0
 11 33  1  0
 12 17  1  0
 12 13  2  0
 13 14  1  0
 14 15  2  0
 14 34  1  0
 15 16  1  0
 15 35  1  0
 16 17  2  0
 16 36  1  0
 17 18  1  0
 19 20  1  0
 19 37  1  0
 20 24  1  0
 20 21  1  0
 20 38  1  0
 21 22  1  0
 21 39  1  0
 21 40  1  0
 22 23  1  0
 22 41  1  0
 22 42  1  0
 23 24  1  0
 23 43  1  0
 23 44  1  0
 24 45  1  0
 24 46  1  0
 25 26  1  0
 25 47  1  0
 25 48  1  0
 26 49  1  0
M  CHG  1   7   1
M  END
>  <DOCK_score>  (1) 
-48.675198

>  <SMILES>  (1) 
O=C1CC[C@H]([NH+]=C(NCc2ncccc2Br)NC2CCCC2)CN1

$$$$
