CCc1cccc(COc2cccc(C[C@@H]([NH3+])C(=O)Nc3cccc(O)c3)c2)c1
     RDKit          3D

 56 58  0  0  1  0  0  0  0  0999 V2000
  137.1249  137.6644  165.6002 C   0  0  0  0  0  0  0  0  0  0  0  0
  136.1286  137.4105  166.7332 C   0  0  0  0  0  0  0  0  0  0  0  0
  134.7238  137.5746  166.2128 C   0  0  0  0  0  0  0  0  0  0  0  0
  134.1090  138.8120  166.2607 C   0  0  0  0  0  0  0  0  0  0  0  0
  132.8205  138.9624  165.7834 C   0  0  0  0  0  0  0  0  0  0  0  0
  132.1466  137.8753  165.2583 C   0  0  0  0  0  0  0  0  0  0  0  0
  132.7592  136.6373  165.2153 C   0  0  0  0  0  0  0  0  0  0  0  0
  132.0223  135.4511  164.6488 C   0  0  0  0  0  0  0  0  0  0  0  0
  132.2753  135.3590  163.2455 O   0  0  0  0  0  0  0  0  0  0  0  0
  131.6808  134.3360  162.5771 C   0  0  0  0  0  0  0  0  0  0  0  0
  130.8749  133.4356  163.2591 C   0  0  0  0  0  0  0  0  0  0  0  0
  130.2675  132.3997  162.5766 C   0  0  0  0  0  0  0  0  0  0  0  0
  130.4704  132.2534  161.2165 C   0  0  0  0  0  0  0  0  0  0  0  0
  131.2775  133.1458  160.5358 C   0  0  0  0  0  0  0  0  0  0  0  0
  131.4965  132.9833  159.0536 C   0  0  0  0  0  0  0  0  0  0  0  0
  130.4246  133.7649  158.2910 C   0  0  1  0  0  0  0  0  0  0  0  0
  130.4887  134.8206  158.5543 H   0  0  0  0  0  0  0  0  0  0  0  0
  130.6381  133.6066  156.8463 N   0  0  0  0  0  0  0  0  0  0  0  0
  130.5789  132.6292  156.6027 H   0  0  0  0  0  0  0  0  0  0  0  0
  129.9313  134.1219  156.3434 H   0  0  0  0  0  0  0  0  0  0  0  0
  131.5507  133.9597  156.6005 H   0  0  0  0  0  0  0  0  0  0  0  0
  129.0616  133.2373  158.6583 C   0  0  0  0  0  0  0  0  0  0  0  0
  128.5689  132.3326  158.0181 O   0  0  0  0  0  0  0  0  0  0  0  0
  128.3902  133.7708  159.6980 N   0  0  0  0  0  0  0  0  0  0  0  0
  127.1246  133.2808  160.0389 C   0  0  0  0  0  0  0  0  0  0  0  0
  126.8036  131.9519  159.7916 C   0  0  0  0  0  0  0  0  0  0  0  0
  125.5564  131.4667  160.1339 C   0  0  0  0  0  0  0  0  0  0  0  0
  124.6209  132.3041  160.7116 C   0  0  0  0  0  0  0  0  0  0  0  0
  124.9342  133.6338  160.9556 C   0  0  0  0  0  0  0  0  0  0  0  0
  124.0132  134.4561  161.5236 O   0  0  0  0  0  0  0  0  0  0  0  0
  126.1869  134.1229  160.6192 C   0  0  0  0  0  0  0  0  0  0  0  0
  131.8831  134.1866  161.2130 C   0  0  0  0  0  0  0  0  0  0  0  0
  134.0502  136.4879  165.6875 C   0  0  0  0  0  0  0  0  0  0  0  0
  136.9939  138.6781  165.2213 H   0  0  0  0  0  0  0  0  0  0  0  0
  138.1411  137.5458  165.9765 H   0  0  0  0  0  0  0  0  0  0  0  0
  136.9498  136.9504  164.7954 H   0  0  0  0  0  0  0  0  0  0  0  0
  136.3037  138.1248  167.5378 H   0  0  0  0  0  0  0  0  0  0  0  0
  136.2597  136.3970  167.1120 H   0  0  0  0  0  0  0  0  0  0  0  0
  134.6353  139.6610  166.6711 H   0  0  0  0  0  0  0  0  0  0  0  0
  132.3401  139.9289  165.8210 H   0  0  0  0  0  0  0  0  0  0  0  0
  131.1396  137.9928  164.8857 H   0  0  0  0  0  0  0  0  0  0  0  0
  132.3661  134.5409  165.1404 H   0  0  0  0  0  0  0  0  0  0  0  0
  130.9525  135.5733  164.8179 H   0  0  0  0  0  0  0  0  0  0  0  0
  130.7198  133.5469  164.3221 H   0  0  0  0  0  0  0  0  0  0  0  0
  129.6368  131.7011  163.1063 H   0  0  0  0  0  0  0  0  0  0  0  0
  129.9979  131.4403  160.6854 H   0  0  0  0  0  0  0  0  0  0  0  0
  132.4823  133.3649  158.7880 H   0  0  0  0  0  0  0  0  0  0  0  0
  131.4325  131.9276  158.7905 H   0  0  0  0  0  0  0  0  0  0  0  0
  128.7843  134.4942  160.2100 H   0  0  0  0  0  0  0  0  0  0  0  0
  127.5312  131.2967  159.3359 H   0  0  0  0  0  0  0  0  0  0  0  0
  125.3102  130.4321  159.9453 H   0  0  0  0  0  0  0  0  0  0  0  0
  123.6449  131.9231  160.9737 H   0  0  0  0  0  0  0  0  0  0  0  0
  124.3229  135.3628  161.6541 H   0  0  0  0  0  0  0  0  0  0  0  0
  126.4325  135.1573  160.8087 H   0  0  0  0  0  0  0  0  0  0  0  0
  132.5132  134.8839  160.6806 H   0  0  0  0  0  0  0  0  0  0  0  0
  134.5306  135.5214  165.6499 H   0  0  0  0  0  0  0  0  0  0  0  0
  1  2  1  0
  1 34  1  0
  1 35  1  0
  1 36  1  0
  2  3  1  0
  2 37  1  0
  2 38  1  0
  3 33  2  0
  3  4  1  0
  4  5  2  0
  4 39  1  0
  5  6  1  0
  5 40  1  0
  6  7  2  0
  6 41  1  0
  7  8  1  0
  7 33  1  0
  8  9  1  0
  8 42  1  0
  8 43  1  0
  9 10  1  0
 10 32  1  0
 10 11  2  0
 11 12  1  0
 11 44  1  0
 12 13  2  0
 12 45  1  0
 13 14  1  0
 13 46  1  0
 14 15  1  0
 14 32  2  0
 15 16  1  0
 15 47  1  0
 15 48  1  0
 16 17  1  6
 16 18  1  0
 16 22  1  0
 18 19  1  0
 18 20  1  0
 18 21  1  0
 22 23  2  0
 22 24  1  0
 24 25  1  0
 24 49  1  0
 25 31  1  0
 25 26  2  0
 26 27  1  0
 26 50  1  0
 27 28  2  0
 27 51  1  0
 28 29  1  0
 28 52  1  0
 29 30  1  0
 29 31  2  0
 30 53  1  0
 31 54  1  0
 32 55  1  0
 33 56  1  0
M  CHG  1  18   1
M  END
>  <DOCK_score>  (1) 
-44.029507

>  <SMILES>  (1) 
CCc1cccc(COc2cccc(C[C@@H]([NH3+])C(=O)Nc3cccc(O)c3)c2)c1

$$$$
