CC1=CCC(O)(C(C)[C@H](Nc2[nH]cc(-c3ccc(N)cc3)[nH+]2)c2ccccc2Br)CC1
     RDKit          3D

 61 64  0  0  1  0  0  0  0  0999 V2000
  136.2400  137.5189  162.8074 C   0  0  0  0  0  0  0  0  0  0  0  0
  134.7637  137.3514  162.5556 C   0  0  0  0  0  0  0  0  0  0  0  0
  134.0446  138.4202  162.4281 C   0  0  0  0  0  0  0  0  0  0  0  0
  132.5593  138.4155  162.1827 C   0  0  0  0  0  0  0  0  0  0  0  0
  132.1168  137.0345  161.6944 C   0  0  2  0  0  0  0  0  0  0  0  0
  132.6009  136.8163  160.3677 O   0  0  0  0  0  0  0  0  0  0  0  0
  130.5891  136.9506  161.7046 C   0  0  1  0  0  0  0  0  0  0  0  0
  130.0131  138.0248  160.7799 C   0  0  0  0  0  0  0  0  0  0  0  0
  130.1509  135.5685  161.2157 C   0  0  2  0  0  0  0  0  0  0  0  0
  130.5613  134.8031  161.8744 H   0  0  0  0  0  0  0  0  0  0  0  0
  130.6427  135.3542  159.8525 N   0  0  0  0  0  0  0  0  0  0  0  0
  130.3686  134.1663  159.1965 C   0  0  0  0  0  0  0  0  0  0  0  0
  129.6518  133.1275  159.7047 N   0  0  0  0  0  0  0  0  0  0  0  0
  129.2445  133.0860  160.5841 H   0  0  0  0  0  0  0  0  0  0  0  0
  129.6116  132.1472  158.7416 C   0  0  0  0  0  0  0  0  0  0  0  0
  130.3046  132.6158  157.6745 C   0  0  0  0  0  0  0  0  0  0  0  0
  130.5292  131.8980  156.3958 C   0  0  0  0  0  0  0  0  0  0  0  0
  130.0674  132.4434  155.1987 C   0  0  0  0  0  0  0  0  0  0  0  0
  130.2818  131.7768  154.0107 C   0  0  0  0  0  0  0  0  0  0  0  0
  130.9476  130.5568  154.0076 C   0  0  0  0  0  0  0  0  0  0  0  0
  131.1586  129.8807  152.8034 N   0  0  0  0  0  0  0  0  0  0  0  0
  131.4041  130.0088  155.2003 C   0  0  0  0  0  0  0  0  0  0  0  0
  131.1971  130.6744  156.3900 C   0  0  0  0  0  0  0  0  0  0  0  0
  130.7523  133.8592  157.9812 N   0  0  0  0  0  0  0  0  0  0  0  0
  131.2748  134.4292  157.3956 H   0  0  0  0  0  0  0  0  0  0  0  0
  128.6462  135.4858  161.2259 C   0  0  0  0  0  0  0  0  0  0  0  0
  127.9260  135.8554  160.1053 C   0  0  0  0  0  0  0  0  0  0  0  0
  126.5459  135.7791  160.1143 C   0  0  0  0  0  0  0  0  0  0  0  0
  125.8852  135.3337  161.2442 C   0  0  0  0  0  0  0  0  0  0  0  0
  126.6043  134.9640  162.3649 C   0  0  0  0  0  0  0  0  0  0  0  0
  127.9860  135.0347  162.3543 C   0  0  0  0  0  0  0  0  0  0  0  0
  128.9709  134.5225  163.8851 Br  0  0  0  0  0  0  0  0  0  0  0  0
  132.6978  135.9727  162.6366 C   0  0  0  0  0  0  0  0  0  0  0  0
  134.2186  135.9561  162.4678 C   0  0  0  0  0  0  0  0  0  0  0  0
  136.7692  137.5554  161.8551 H   0  0  0  0  0  0  0  0  0  0  0  0
  136.4124  138.4456  163.3546 H   0  0  0  0  0  0  0  0  0  0  0  0
  136.6063  136.6767  163.3946 H   0  0  0  0  0  0  0  0  0  0  0  0
  134.5413  139.3764  162.5011 H   0  0  0  0  0  0  0  0  0  0  0  0
  132.3105  139.1622  161.4287 H   0  0  0  0  0  0  0  0  0  0  0  0
  132.0392  138.6544  163.1103 H   0  0  0  0  0  0  0  0  0  0  0  0
  132.2771  137.4576  159.7205 H   0  0  0  0  0  0  0  0  0  0  0  0
  130.2233  137.1101  162.7189 H   0  0  0  0  0  0  0  0  0  0  0  0
  130.3790  137.8654  159.7657 H   0  0  0  0  0  0  0  0  0  0  0  0
  128.9247  137.9650  160.7872 H   0  0  0  0  0  0  0  0  0  0  0  0
  130.3253  139.0094  161.1282 H   0  0  0  0  0  0  0  0  0  0  0  0
  131.1602  136.0447  159.4094 H   0  0  0  0  0  0  0  0  0  0  0  0
  129.1221  131.1877  158.8199 H   0  0  0  0  0  0  0  0  0  0  0  0
  129.5459  133.3890  155.2014 H   0  0  0  0  0  0  0  0  0  0  0  0
  129.9284  132.2011  153.0827 H   0  0  0  0  0  0  0  0  0  0  0  0
  131.6235  129.0293  152.8002 H   0  0  0  0  0  0  0  0  0  0  0  0
  130.8402  130.2625  151.9705 H   0  0  0  0  0  0  0  0  0  0  0  0
  131.9213  129.0607  155.1955 H   0  0  0  0  0  0  0  0  0  0  0  0
  131.5523  130.2483  157.3166 H   0  0  0  0  0  0  0  0  0  0  0  0
  128.4418  136.2041  159.2227 H   0  0  0  0  0  0  0  0  0  0  0  0
  125.9836  136.0679  159.2388 H   0  0  0  0  0  0  0  0  0  0  0  0
  124.8068  135.2749  161.2510 H   0  0  0  0  0  0  0  0  0  0  0  0
  126.0881  134.6157  163.2472 H   0  0  0  0  0  0  0  0  0  0  0  0
  132.4462  136.2206  163.6677 H   0  0  0  0  0  0  0  0  0  0  0  0
  132.2901  134.9943  162.3818 H   0  0  0  0  0  0  0  0  0  0  0  0
  134.6626  135.3446  163.2534 H   0  0  0  0  0  0  0  0  0  0  0  0
  134.4697  135.5328  161.4952 H   0  0  0  0  0  0  0  0  0  0  0  0
  1  2  1  0
  1 35  1  0
  1 36  1  0
  1 37  1  0
  2 34  1  0
  2  3  2  0
  3  4  1  0
  3 38  1  0
  4  5  1  0
  4 39  1  0
  4 40  1  0
  5  6  1  6
  5  7  1  0
  5 33  1  0
  6 41  1  0
  7  8  1  0
  7  9  1  0
  7 42  1  1
  8 43  1  0
  8 44  1  0
  8 45  1  0
  9 10  1  1
  9 11  1  0
  9 26  1  0
 11 46  1  0
 12 11  1  0
 12 24  2  0
 12 13  1  0
 13 14  1  0
 13 15  1  0
 15 16  2  0
 15 47  1  0
 16 17  1  0
 16 24  1  0
 17 23  1  0
 17 18  2  0
 18 19  1  0
 18 48  1  0
 19 20  2  0
 19 49  1  0
 20 21  1  0
 20 22  1  0
 21 50  1  0
 21 51  1  0
 22 23  2  0
 22 52  1  0
 23 53  1  0
 24 25  1  0
 26 31  1  0
 26 27  2  0
 27 28  1  0
 27 54  1  0
 28 29  2  0
 28 55  1  0
 29 30  1  0
 29 56  1  0
 30 31  2  0
 30 57  1  0
 31 32  1  0
 33 34  1  0
 33 58  1  0
 33 59  1  0
 34 60  1  0
 34 61  1  0
M  CHG  1  24   1
M  END
>  <DOCK_score>  (1) 
-60.3685

>  <SMILES>  (1) 
CC1=CCC(O)(C(C)[C@H](Nc2[nH]cc(-c3ccc(N)cc3)[nH+]2)c2ccccc2Br)CC1

$$$$
