CCn1ncnc1[C@H](C)Nc1cccc(CC[NH+]2CCC(c3cccnc3)C2)c1
     RDKit          3D

 60 63  0  0  1  0  0  0  0  0999 V2000
  130.7438  131.4832  157.4244 C   0  0  0  0  0  0  0  0  0  0  0  0
  129.7497  132.6077  157.1270 C   0  0  0  0  0  0  0  0  0  0  0  0
  128.7475  132.6684  158.1939 N   0  0  0  0  0  0  0  0  0  0  0  0
  128.0716  131.5839  158.7765 N   0  0  0  0  0  0  0  0  0  0  0  0
  127.2673  132.0811  159.6791 C   0  0  0  0  0  0  0  0  0  0  0  0
  127.4045  133.4062  159.6980 N   0  0  0  0  0  0  0  0  0  0  0  0
  128.2945  133.7730  158.8119 C   0  0  0  0  0  0  0  0  0  0  0  0
  128.7309  135.1873  158.5288 C   0  0  2  0  0  0  0  0  0  0  0  0
  128.1925  135.8719  159.1842 H   0  0  0  0  0  0  0  0  0  0  0  0
  128.4264  135.5326  157.0697 C   0  0  0  0  0  0  0  0  0  0  0  0
  130.1706  135.3116  158.7698 N   0  0  0  0  0  0  0  0  0  0  0  0
  130.6922  135.0450  160.0377 C   0  0  0  0  0  0  0  0  0  0  0  0
  131.9844  134.5522  160.1695 C   0  0  0  0  0  0  0  0  0  0  0  0
  132.4968  134.2893  161.4245 C   0  0  0  0  0  0  0  0  0  0  0  0
  131.7230  134.5105  162.5493 C   0  0  0  0  0  0  0  0  0  0  0  0
  130.4385  135.0062  162.4221 C   0  0  0  0  0  0  0  0  0  0  0  0
  129.6013  135.2515  163.6509 C   0  0  0  0  0  0  0  0  0  0  0  0
  129.8244  136.6832  164.1426 C   0  0  0  0  0  0  0  0  0  0  0  0
  129.0081  136.9222  165.3403 N   0  0  1  0  0  0  0  0  0  0  0  0
  129.0239  136.1048  165.9315 H   0  0  0  0  0  0  0  0  0  0  0  0
  129.5412  138.0805  166.0808 C   0  0  0  0  0  0  0  0  0  0  0  0
  128.4127  139.1298  166.1625 C   0  0  0  0  0  0  0  0  0  0  0  0
  127.1304  138.2802  165.9607 C   0  0  1  0  0  0  0  0  0  0  0  0
  126.0158  139.1138  165.3830 C   0  0  0  0  0  0  0  0  0  0  0  0
  125.9390  140.4709  165.6579 C   0  0  0  0  0  0  0  0  0  0  0  0
  124.8965  141.1982  165.1047 C   0  0  0  0  0  0  0  0  0  0  0  0
  123.9746  140.5510  164.3032 C   0  0  0  0  0  0  0  0  0  0  0  0
  124.0791  139.2588  164.0634 N   0  0  0  0  0  0  0  0  0  0  0  0
  125.0607  138.5368  164.5680 C   0  0  0  0  0  0  0  0  0  0  0  0
  127.6155  137.2184  164.9425 C   0  0  0  0  0  0  0  0  0  0  0  0
  129.9197  135.2714  161.1698 C   0  0  0  0  0  0  0  0  0  0  0  0
  131.2378  131.6774  158.3764 H   0  0  0  0  0  0  0  0  0  0  0  0
  130.2121  130.5332  157.4780 H   0  0  0  0  0  0  0  0  0  0  0  0
  131.4895  131.4379  156.6306 H   0  0  0  0  0  0  0  0  0  0  0  0
  129.2558  132.4135  156.1751 H   0  0  0  0  0  0  0  0  0  0  0  0
  130.2814  133.5577  157.0735 H   0  0  0  0  0  0  0  0  0  0  0  0
  126.5993  131.5103  160.3070 H   0  0  0  0  0  0  0  0  0  0  0  0
  128.9650  134.8481  156.4144 H   0  0  0  0  0  0  0  0  0  0  0  0
  127.3552  135.4401  156.8904 H   0  0  0  0  0  0  0  0  0  0  0  0
  128.7421  136.5556  156.8649 H   0  0  0  0  0  0  0  0  0  0  0  0
  130.7618  135.5790  158.0487 H   0  0  0  0  0  0  0  0  0  0  0  0
  132.5874  134.3748  159.2913 H   0  0  0  0  0  0  0  0  0  0  0  0
  133.5013  133.9063  161.5277 H   0  0  0  0  0  0  0  0  0  0  0  0
  132.1244  134.2994  163.5295 H   0  0  0  0  0  0  0  0  0  0  0  0
  128.5482  135.1111  163.4070 H   0  0  0  0  0  0  0  0  0  0  0  0
  129.8899  134.5496  164.4333 H   0  0  0  0  0  0  0  0  0  0  0  0
  130.8773  136.8237  164.3863 H   0  0  0  0  0  0  0  0  0  0  0  0
  129.5356  137.3850  163.3602 H   0  0  0  0  0  0  0  0  0  0  0  0
  129.8367  137.7749  167.0846 H   0  0  0  0  0  0  0  0  0  0  0  0
  130.3977  138.4973  165.5506 H   0  0  0  0  0  0  0  0  0  0  0  0
  128.4053  139.6127  167.1398 H   0  0  0  0  0  0  0  0  0  0  0  0
  128.5148  139.8683  165.3673 H   0  0  0  0  0  0  0  0  0  0  0  0
  126.8209  137.8123  166.8953 H   0  0  0  0  0  0  0  0  0  0  0  0
  126.6742  140.9498  166.2877 H   0  0  0  0  0  0  0  0  0  0  0  0
  124.8058  142.2570  165.2973 H   0  0  0  0  0  0  0  0  0  0  0  0
  123.1594  141.1104  163.8688 H   0  0  0  0  0  0  0  0  0  0  0  0
  125.1163  137.4815  164.3452 H   0  0  0  0  0  0  0  0  0  0  0  0
  127.5876  137.6225  163.9306 H   0  0  0  0  0  0  0  0  0  0  0  0
  127.0023  136.3198  165.0100 H   0  0  0  0  0  0  0  0  0  0  0  0
  128.9149  135.6546  161.0708 H   0  0  0  0  0  0  0  0  0  0  0  0
  1  2  1  0
  1 32  1  0
  1 33  1  0
  1 34  1  0
  2  3  1  0
  2 35  1  0
  2 36  1  0
  3  7  1  0
  3  4  1  0
  4  5  2  0
  5  6  1  0
  5 37  1  0
  6  7  2  0
  7  8  1  0
  8  9  1  1
  8 10  1  0
  8 11  1  0
 10 38  1  0
 10 39  1  0
 10 40  1  0
 11 12  1  0
 11 41  1  0
 12 31  1  0
 12 13  2  0
 13 14  1  0
 13 42  1  0
 14 15  2  0
 14 43  1  0
 15 16  1  0
 15 44  1  0
 16 17  1  0
 16 31  2  0
 17 18  1  0
 17 45  1  0
 17 46  1  0
 18 19  1  0
 18 47  1  0
 18 48  1  0
 19 20  1  1
 19 30  1  0
 19 21  1  0
 21 22  1  0
 21 49  1  0
 21 50  1  0
 22 23  1  0
 22 51  1  0
 22 52  1  0
 23 24  1  0
 23 30  1  0
 23 53  1  1
 24 29  1  0
 24 25  2  0
 25 26  1  0
 25 54  1  0
 26 27  2  0
 26 55  1  0
 27 28  1  0
 27 56  1  0
 28 29  2  0
 29 57  1  0
 30 58  1  0
 30 59  1  0
 31 60  1  0
M  CHG  1  19   1
M  END
>  <DOCK_score>  (1) 
-41.93026

>  <SMILES>  (1) 
CCn1ncnc1[C@H](C)Nc1cccc(CC[NH+]2CCC(c3cccnc3)C2)c1

$$$$
