CCN(c1ccc(N)c(O)c1)C1CC[N@H+](Cc2ccccc2)C1
     RDKit          3D

 49 51  0  0  1  0  0  0  0  0999 V2000
  128.2943  135.2894  156.8838 C   0  0  0  0  0  0  0  0  0  0  0  0
  129.3042  134.5670  157.7777 C   0  0  0  0  0  0  0  0  0  0  0  0
  128.7949  134.5193  159.1506 N   0  0  0  0  0  0  0  0  0  0  0  0
  127.5812  133.8782  159.4249 C   0  0  0  0  0  0  0  0  0  0  0  0
  127.4285  132.5287  159.1360 C   0  0  0  0  0  0  0  0  0  0  0  0
  126.2310  131.8936  159.4061 C   0  0  0  0  0  0  0  0  0  0  0  0
  125.1793  132.6033  159.9659 C   0  0  0  0  0  0  0  0  0  0  0  0
  123.9639  131.9581  160.2389 N   0  0  0  0  0  0  0  0  0  0  0  0
  125.3301  133.9570  160.2567 C   0  0  0  0  0  0  0  0  0  0  0  0
  124.2997  134.6544  160.8058 O   0  0  0  0  0  0  0  0  0  0  0  0
  126.5326  134.5906  159.9912 C   0  0  0  0  0  0  0  0  0  0  0  0
  129.5589  135.1375  160.2371 C   0  0  1  0  0  0  0  0  0  0  0  0
  130.9939  134.5641  160.2778 C   0  0  0  0  0  0  0  0  0  0  0  0
  131.8552  135.8090  160.6075 C   0  0  0  0  0  0  0  0  0  0  0  0
  131.1872  136.8956  159.8465 N   0  0  2  0  0  0  0  0  0  0  0  0
  131.4611  136.8602  158.8760 H   0  0  0  0  0  0  0  0  0  0  0  0
  131.5303  138.2027  160.4229 C   0  0  0  0  0  0  0  0  0  0  0  0
  132.8942  138.6226  159.9388 C   0  0  0  0  0  0  0  0  0  0  0  0
  134.0210  138.2742  160.6598 C   0  0  0  0  0  0  0  0  0  0  0  0
  135.2725  138.6556  160.2136 C   0  0  0  0  0  0  0  0  0  0  0  0
  135.3964  139.3938  159.0515 C   0  0  0  0  0  0  0  0  0  0  0  0
  134.2693  139.7464  158.3330 C   0  0  0  0  0  0  0  0  0  0  0  0
  133.0181  139.3613  158.7769 C   0  0  0  0  0  0  0  0  0  0  0  0
  129.7331  136.6453  159.9774 C   0  0  0  0  0  0  0  0  0  0  0  0
  128.5946  135.1881  155.8409 H   0  0  0  0  0  0  0  0  0  0  0  0
  127.3069  134.8492  157.0220 H   0  0  0  0  0  0  0  0  0  0  0  0
  128.2622  136.3454  157.1517 H   0  0  0  0  0  0  0  0  0  0  0  0
  130.2532  135.1028  157.7607 H   0  0  0  0  0  0  0  0  0  0  0  0
  129.4538  133.5516  157.4103 H   0  0  0  0  0  0  0  0  0  0  0  0
  128.2466  131.9747  158.7000 H   0  0  0  0  0  0  0  0  0  0  0  0
  126.1141  130.8439  159.1805 H   0  0  0  0  0  0  0  0  0  0  0  0
  123.8589  131.0153  160.0359 H   0  0  0  0  0  0  0  0  0  0  0  0
  123.2284  132.4547  160.6305 H   0  0  0  0  0  0  0  0  0  0  0  0
  124.4992  135.5860  160.9713 H   0  0  0  0  0  0  0  0  0  0  0  0
  126.6530  135.6392  160.2200 H   0  0  0  0  0  0  0  0  0  0  0  0
  129.0585  134.9734  161.1914 H   0  0  0  0  0  0  0  0  0  0  0  0
  131.0868  133.8123  161.0617 H   0  0  0  0  0  0  0  0  0  0  0  0
  131.2699  134.1460  159.3097 H   0  0  0  0  0  0  0  0  0  0  0  0
  131.8344  136.0192  161.6768 H   0  0  0  0  0  0  0  0  0  0  0  0
  132.8796  135.6708  160.2615 H   0  0  0  0  0  0  0  0  0  0  0  0
  130.7914  138.9416  160.1131 H   0  0  0  0  0  0  0  0  0  0  0  0
  131.5372  138.1295  161.5104 H   0  0  0  0  0  0  0  0  0  0  0  0
  133.9239  137.7008  161.5700 H   0  0  0  0  0  0  0  0  0  0  0  0
  136.1532  138.3799  160.7746 H   0  0  0  0  0  0  0  0  0  0  0  0
  136.3739  139.6948  158.7045 H   0  0  0  0  0  0  0  0  0  0  0  0
  134.3661  140.3232  157.4250 H   0  0  0  0  0  0  0  0  0  0  0  0
  132.1374  139.6370  158.2158 H   0  0  0  0  0  0  0  0  0  0  0  0
  129.2231  136.9247  159.0553 H   0  0  0  0  0  0  0  0  0  0  0  0
  129.3306  137.2153  160.8147 H   0  0  0  0  0  0  0  0  0  0  0  0
  1  2  1  0
  1 25  1  0
  1 26  1  0
  1 27  1  0
  2  3  1  0
  2 28  1  0
  2 29  1  0
  3  4  1  0
  3 12  1  0
  4 11  1  0
  4  5  2  0
  5  6  1  0
  5 30  1  0
  6  7  2  0
  6 31  1  0
  7  8  1  0
  7  9  1  0
  8 32  1  0
  8 33  1  0
  9 10  1  0
  9 11  2  0
 10 34  1  0
 11 35  1  0
 12 24  1  0
 12 13  1  0
 12 36  1  1
 13 14  1  0
 13 37  1  0
 13 38  1  0
 14 15  1  0
 14 39  1  0
 14 40  1  0
 15 16  1  6
 15 17  1  0
 15 24  1  0
 17 18  1  0
 17 41  1  0
 17 42  1  0
 18 23  1  0
 18 19  2  0
 19 20  1  0
 19 43  1  0
 20 21  2  0
 20 44  1  0
 21 22  1  0
 21 45  1  0
 22 23  2  0
 22 46  1  0
 23 47  1  0
 24 48  1  0
 24 49  1  0
M  CHG  1  15   1
M  END
>  <DOCK_score>  (1) 
-44.154861

>  <SMILES>  (1) 
CCN(c1ccc(N)c(O)c1)C1CC[N@H+](Cc2ccccc2)C1

$$$$
