Clc1ccc2c(c1)OC[C@H](Nc1ccc(-c3n[nH]cc3C[NH2+]Cc3ccccc3)o1)C2
     RDKit          3D

 55 59  0  0  1  0  0  0  0  0999 V2000
  129.5287  138.9631  169.0396 Cl  0  0  0  0  0  0  0  0  0  0  0  0
  128.8125  138.1088  167.7090 C   0  0  0  0  0  0  0  0  0  0  0  0
  128.6541  136.7352  167.7723 C   0  0  0  0  0  0  0  0  0  0  0  0
  128.0829  136.0573  166.7136 C   0  0  0  0  0  0  0  0  0  0  0  0
  127.6658  136.7449  165.5858 C   0  0  0  0  0  0  0  0  0  0  0  0
  127.8248  138.1178  165.5181 C   0  0  0  0  0  0  0  0  0  0  0  0
  128.4037  138.7983  166.5846 C   0  0  0  0  0  0  0  0  0  0  0  0
  127.4349  138.8311  164.4296 O   0  0  0  0  0  0  0  0  0  0  0  0
  126.5300  138.2116  163.5145 C   0  0  0  0  0  0  0  0  0  0  0  0
  127.0649  136.8141  163.1765 C   0  0  2  0  0  0  0  0  0  0  0  0
  128.0867  136.8916  162.8054 H   0  0  0  0  0  0  0  0  0  0  0  0
  126.2150  136.1934  162.1575 N   0  0  0  0  0  0  0  0  0  0  0  0
  126.7599  135.2850  161.2574 C   0  0  0  0  0  0  0  0  0  0  0  0
  126.1016  134.2483  160.6814 C   0  0  0  0  0  0  0  0  0  0  0  0
  127.0227  133.5925  159.8409 C   0  0  0  0  0  0  0  0  0  0  0  0
  128.2021  134.2585  159.9539 C   0  0  0  0  0  0  0  0  0  0  0  0
  129.4579  133.9197  159.2530 C   0  0  0  0  0  0  0  0  0  0  0  0
  129.6329  132.9176  158.4142 N   0  0  0  0  0  0  0  0  0  0  0  0
  130.9611  132.9489  157.9707 N   0  0  0  0  0  0  0  0  0  0  0  0
  131.3665  132.3286  157.3447 H   0  0  0  0  0  0  0  0  0  0  0  0
  131.5815  133.9881  158.5703 C   0  0  0  0  0  0  0  0  0  0  0  0
  130.6843  134.6076  159.3668 C   0  0  0  0  0  0  0  0  0  0  0  0
  130.9466  135.8186  160.2245 C   0  0  0  0  0  0  0  0  0  0  0  0
  130.6673  137.0361  159.4514 N   0  0  0  0  0  0  0  0  0  0  0  0
  131.2654  137.0633  158.6391 H   0  0  0  0  0  0  0  0  0  0  0  0
  129.7018  137.0342  159.1582 H   0  0  0  0  0  0  0  0  0  0  0  0
  130.9230  138.2166  160.2875 C   0  0  0  0  0  0  0  0  0  0  0  0
  132.3651  138.2193  160.7252 C   0  0  0  0  0  0  0  0  0  0  0  0
  132.7304  137.5980  161.9047 C   0  0  0  0  0  0  0  0  0  0  0  0
  134.0539  137.5964  162.3038 C   0  0  0  0  0  0  0  0  0  0  0  0
  135.0103  138.2249  161.5287 C   0  0  0  0  0  0  0  0  0  0  0  0
  134.6442  138.8506  160.3517 C   0  0  0  0  0  0  0  0  0  0  0  0
  133.3215  138.8478  159.9500 C   0  0  0  0  0  0  0  0  0  0  0  0
  128.0292  135.2826  160.8158 O   0  0  0  0  0  0  0  0  0  0  0  0
  127.0420  135.9695  164.4530 C   0  0  0  0  0  0  0  0  0  0  0  0
  128.9776  136.1939  168.6490 H   0  0  0  0  0  0  0  0  0  0  0  0
  127.9603  134.9854  166.7654 H   0  0  0  0  0  0  0  0  0  0  0  0
  128.5306  139.8697  166.5344 H   0  0  0  0  0  0  0  0  0  0  0  0
  125.5449  138.1268  163.9734 H   0  0  0  0  0  0  0  0  0  0  0  0
  126.4618  138.8085  162.6051 H   0  0  0  0  0  0  0  0  0  0  0  0
  125.2721  136.4161  162.1109 H   0  0  0  0  0  0  0  0  0  0  0  0
  125.0674  133.9783  160.8361 H   0  0  0  0  0  0  0  0  0  0  0  0
  126.8299  132.7245  159.2279 H   0  0  0  0  0  0  0  0  0  0  0  0
  132.6143  134.2735  158.4362 H   0  0  0  0  0  0  0  0  0  0  0  0
  130.3006  135.7892  161.1019 H   0  0  0  0  0  0  0  0  0  0  0  0
  131.9896  135.8206  160.5411 H   0  0  0  0  0  0  0  0  0  0  0  0
  130.7159  139.1199  159.7136 H   0  0  0  0  0  0  0  0  0  0  0  0
  130.2770  138.1873  161.1648 H   0  0  0  0  0  0  0  0  0  0  0  0
  131.9824  137.1108  162.5127 H   0  0  0  0  0  0  0  0  0  0  0  0
  134.3400  137.1078  163.2236 H   0  0  0  0  0  0  0  0  0  0  0  0
  136.0437  138.2274  161.8428 H   0  0  0  0  0  0  0  0  0  0  0  0
  135.3914  139.3421  159.7463 H   0  0  0  0  0  0  0  0  0  0  0  0
  133.0353  139.3371  159.0307 H   0  0  0  0  0  0  0  0  0  0  0  0
  126.0110  135.7231  164.7066 H   0  0  0  0  0  0  0  0  0  0  0  0
  127.6051  135.0506  164.2900 H   0  0  0  0  0  0  0  0  0  0  0  0
  1  2  1  0
  2  7  2  0
  2  3  1  0
  3  4  2  0
  3 36  1  0
  4  5  1  0
  4 37  1  0
  5 35  1  0
  5  6  2  0
  6  7  1  0
  6  8  1  0
  7 38  1  0
  8  9  1  0
  9 10  1  0
  9 39  1  0
  9 40  1  0
 10 11  1  6
 10 12  1  0
 10 35  1  0
 12 13  1  0
 12 41  1  0
 13 34  1  0
 13 14  2  0
 14 15  1  0
 14 42  1  0
 15 16  2  0
 15 43  1  0
 16 17  1  0
 16 34  1  0
 17 22  1  0
 17 18  2  0
 18 19  1  0
 19 20  1  0
 19 21  1  0
 21 22  2  0
 21 44  1  0
 22 23  1  0
 23 24  1  0
 23 45  1  0
 23 46  1  0
 24 25  1  0
 24 26  1  0
 24 27  1  0
 27 28  1  0
 27 47  1  0
 27 48  1  0
 28 33  1  0
 28 29  2  0
 29 30  1  0
 29 49  1  0
 30 31  2  0
 30 50  1  0
 31 32  1  0
 31 51  1  0
 32 33  2  0
 32 52  1  0
 33 53  1  0
 35 54  1  0
 35 55  1  0
M  CHG  1  24   1
M  END
>  <DOCK_score>  (1) 
-43.444046

>  <SMILES>  (1) 
Clc1ccc2c(c1)OC[C@H](Nc1ccc(-c3n[nH]cc3C[NH2+]Cc3ccccc3)o1)C2

$$$$
