Nc1ccc(-c2c[nH]c(N[C@H](c3ccccc3)c3ccc(Cl)cc3)[nH+]2)cc1
     RDKit          3D

 47 50  0  0  1  0  0  0  0  0999 V2000
  131.3284  129.4626  152.0655 N   0  0  0  0  0  0  0  0  0  0  0  0
  131.0686  130.1282  153.2659 C   0  0  0  0  0  0  0  0  0  0  0  0
  130.1459  131.1679  153.2964 C   0  0  0  0  0  0  0  0  0  0  0  0
  129.8877  131.8273  154.4796 C   0  0  0  0  0  0  0  0  0  0  0  0
  130.5526  131.4507  155.6456 C   0  0  0  0  0  0  0  0  0  0  0  0
  130.2772  132.1589  156.9196 C   0  0  0  0  0  0  0  0  0  0  0  0
  129.7923  131.5987  158.0553 C   0  0  0  0  0  0  0  0  0  0  0  0
  129.6903  132.6066  158.9848 N   0  0  0  0  0  0  0  0  0  0  0  0
  129.3731  132.5168  159.8971 H   0  0  0  0  0  0  0  0  0  0  0  0
  130.1162  133.7531  158.3884 C   0  0  0  0  0  0  0  0  0  0  0  0
  130.1710  135.0005  158.9863 N   0  0  0  0  0  0  0  0  0  0  0  0
  129.7474  135.1647  160.3791 C   0  0  2  0  0  0  0  0  0  0  0  0
  130.0916  134.3132  160.9662 H   0  0  0  0  0  0  0  0  0  0  0  0
  128.2437  135.2428  160.4409 C   0  0  0  0  0  0  0  0  0  0  0  0
  127.5730  134.7828  161.5586 C   0  0  0  0  0  0  0  0  0  0  0  0
  126.1940  134.8586  161.6170 C   0  0  0  0  0  0  0  0  0  0  0  0
  125.4850  135.3858  160.5538 C   0  0  0  0  0  0  0  0  0  0  0  0
  126.1555  135.8409  159.4339 C   0  0  0  0  0  0  0  0  0  0  0  0
  127.5348  135.7691  159.3772 C   0  0  0  0  0  0  0  0  0  0  0  0
  130.3398  136.4327  160.9381 C   0  0  0  0  0  0  0  0  0  0  0  0
  129.6651  137.1371  161.9177 C   0  0  0  0  0  0  0  0  0  0  0  0
  130.2106  138.2971  162.4347 C   0  0  0  0  0  0  0  0  0  0  0  0
  131.4267  138.7591  161.9638 C   0  0  0  0  0  0  0  0  0  0  0  0
  132.1088  140.2200  162.6075 Cl  0  0  0  0  0  0  0  0  0  0  0  0
  132.0988  138.0566  160.9796 C   0  0  0  0  0  0  0  0  0  0  0  0
  131.5549  136.8938  160.4672 C   0  0  0  0  0  0  0  0  0  0  0  0
  130.4608  133.4826  157.1530 N   0  0  0  0  0  0  0  0  0  0  0  0
  130.7955  134.1261  156.5089 H   0  0  0  0  0  0  0  0  0  0  0  0
  131.4812  130.4114  155.6112 C   0  0  0  0  0  0  0  0  0  0  0  0
  131.7321  129.7514  154.4268 C   0  0  0  0  0  0  0  0  0  0  0  0
  130.8654  129.7252  151.2547 H   0  0  0  0  0  0  0  0  0  0  0  0
  131.9721  128.7374  152.0432 H   0  0  0  0  0  0  0  0  0  0  0  0
  129.6309  131.4595  152.3929 H   0  0  0  0  0  0  0  0  0  0  0  0
  129.1708  132.6347  154.5032 H   0  0  0  0  0  0  0  0  0  0  0  0
  129.5351  130.5600  158.2013 H   0  0  0  0  0  0  0  0  0  0  0  0
  130.4899  135.7659  158.4829 H   0  0  0  0  0  0  0  0  0  0  0  0
  128.1267  134.3675  162.3877 H   0  0  0  0  0  0  0  0  0  0  0  0
  125.6703  134.5034  162.4922 H   0  0  0  0  0  0  0  0  0  0  0  0
  124.4075  135.4424  160.5983 H   0  0  0  0  0  0  0  0  0  0  0  0
  125.6016  136.2527  158.6033 H   0  0  0  0  0  0  0  0  0  0  0  0
  128.0586  136.1247  158.5022 H   0  0  0  0  0  0  0  0  0  0  0  0
  128.7136  136.7788  162.2819 H   0  0  0  0  0  0  0  0  0  0  0  0
  129.6855  138.8450  163.2032 H   0  0  0  0  0  0  0  0  0  0  0  0
  133.0479  138.4169  160.6113 H   0  0  0  0  0  0  0  0  0  0  0  0
  132.0796  136.3451  159.6990 H   0  0  0  0  0  0  0  0  0  0  0  0
  132.0004  130.1207  156.5124 H   0  0  0  0  0  0  0  0  0  0  0  0
  132.4483  128.9434  154.4006 H   0  0  0  0  0  0  0  0  0  0  0  0
  1  2  1  0
  1 31  1  0
  1 32  1  0
  2 30  2  0
  2  3  1  0
  3  4  2  0
  3 33  1  0
  4  5  1  0
  4 34  1  0
  5  6  1  0
  5 29  2  0
  6 27  1  0
  6  7  2  0
  7  8  1  0
  7 35  1  0
  8  9  1  0
  8 10  1  0
 10 11  1  0
 10 27  2  0
 11 12  1  0
 11 36  1  0
 12 13  1  1
 12 14  1  0
 12 20  1  0
 14 19  1  0
 14 15  2  0
 15 16  1  0
 15 37  1  0
 16 17  2  0
 16 38  1  0
 17 18  1  0
 17 39  1  0
 18 19  2  0
 18 40  1  0
 19 41  1  0
 20 26  1  0
 20 21  2  0
 21 22  1  0
 21 42  1  0
 22 23  2  0
 22 43  1  0
 23 24  1  0
 23 25  1  0
 25 26  2  0
 25 44  1  0
 26 45  1  0
 27 28  1  0
 29 30  1  0
 29 46  1  0
 30 47  1  0
M  CHG  1  27   1
M  END
>  <DOCK_score>  (1) 
-55.946274

>  <SMILES>  (1) 
Nc1ccc(-c2c[nH]c(N[C@H](c3ccccc3)c3ccc(Cl)cc3)[nH+]2)cc1

$$$$
