Cc1ccc(C2=CC[C@@H](CNc3[nH]c4ccccc4[nH+]3)C2)cc1-c1nc2c(F)cccc2[nH]1
     RDKit          3D

 58 63  0  0  1  0  0  0  0  0999 V2000
  137.8819  139.7330  161.1976 C   0  0  0  0  0  0  0  0  0  0  0  0
  136.4535  139.2695  161.0710 C   0  0  0  0  0  0  0  0  0  0  0  0
  135.6328  139.8219  160.1078 C   0  0  0  0  0  0  0  0  0  0  0  0
  134.3230  139.4025  159.9849 C   0  0  0  0  0  0  0  0  0  0  0  0
  133.8201  138.4157  160.8352 C   0  0  0  0  0  0  0  0  0  0  0  0
  132.4176  137.9678  160.7024 C   0  0  0  0  0  0  0  0  0  0  0  0
  131.4234  138.7298  160.2811 C   0  0  0  0  0  0  0  0  0  0  0  0
  130.1248  137.9574  160.2622 C   0  0  0  0  0  0  0  0  0  0  0  0
  130.3904  136.7193  161.1490 C   0  0  1  0  0  0  0  0  0  0  0  0
  130.0902  136.9059  162.1803 H   0  0  0  0  0  0  0  0  0  0  0  0
  129.6839  135.4822  160.5909 C   0  0  0  0  0  0  0  0  0  0  0  0
  130.1776  135.2062  159.2395 N   0  0  0  0  0  0  0  0  0  0  0  0
  130.2090  133.9145  158.7696 C   0  0  0  0  0  0  0  0  0  0  0  0
  130.6313  133.5533  157.5600 N   0  0  0  0  0  0  0  0  0  0  0  0
  130.9632  134.1523  156.8730 H   0  0  0  0  0  0  0  0  0  0  0  0
  130.5203  132.1921  157.4506 C   0  0  0  0  0  0  0  0  0  0  0  0
  130.8073  131.2807  156.4384 C   0  0  0  0  0  0  0  0  0  0  0  0
  130.5717  129.9378  156.6389 C   0  0  0  0  0  0  0  0  0  0  0  0
  130.0502  129.4872  157.8427 C   0  0  0  0  0  0  0  0  0  0  0  0
  129.7600  130.3761  158.8550 C   0  0  0  0  0  0  0  0  0  0  0  0
  129.9923  131.7359  158.6693 C   0  0  0  0  0  0  0  0  0  0  0  0
  129.8160  132.8437  159.4560 N   0  0  0  0  0  0  0  0  0  0  0  0
  129.4649  132.8472  160.3601 H   0  0  0  0  0  0  0  0  0  0  0  0
  131.9257  136.5784  161.0361 C   0  0  0  0  0  0  0  0  0  0  0  0
  134.6427  137.8544  161.8090 C   0  0  0  0  0  0  0  0  0  0  0  0
  135.9633  138.2821  161.9276 C   0  0  0  0  0  0  0  0  0  0  0  0
  136.8442  137.6910  162.9587 C   0  0  0  0  0  0  0  0  0  0  0  0
  137.1608  136.4226  163.0422 N   0  0  0  0  0  0  0  0  0  0  0  0
  137.9838  136.2276  164.1012 C   0  0  0  0  0  0  0  0  0  0  0  0
  138.6090  135.0945  164.6377 C   0  0  0  0  0  0  0  0  0  0  0  0
  138.4278  133.8845  164.0647 F   0  0  0  0  0  0  0  0  0  0  0  0
  139.4092  135.2190  165.7523 C   0  0  0  0  0  0  0  0  0  0  0  0
  139.6005  136.4582  166.3474 C   0  0  0  0  0  0  0  0  0  0  0  0
  138.9926  137.5829  165.8322 C   0  0  0  0  0  0  0  0  0  0  0  0
  138.1823  137.4790  164.7094 C   0  0  0  0  0  0  0  0  0  0  0  0
  137.4557  138.3882  163.9658 N   0  0  0  0  0  0  0  0  0  0  0  0
  137.3897  139.3424  164.1279 H   0  0  0  0  0  0  0  0  0  0  0  0
  137.9499  140.4919  161.9771 H   0  0  0  0  0  0  0  0  0  0  0  0
  138.5170  138.8863  161.4585 H   0  0  0  0  0  0  0  0  0  0  0  0
  138.2120  140.1560  160.2488 H   0  0  0  0  0  0  0  0  0  0  0  0
  136.0156  140.5886  159.4505 H   0  0  0  0  0  0  0  0  0  0  0  0
  133.6862  139.8386  159.2294 H   0  0  0  0  0  0  0  0  0  0  0  0
  131.5258  139.7639  159.9872 H   0  0  0  0  0  0  0  0  0  0  0  0
  129.8764  137.6500  159.2464 H   0  0  0  0  0  0  0  0  0  0  0  0
  129.3199  138.5600  160.6831 H   0  0  0  0  0  0  0  0  0  0  0  0
  129.8878  134.6261  161.2340 H   0  0  0  0  0  0  0  0  0  0  0  0
  128.6094  135.6624  160.5555 H   0  0  0  0  0  0  0  0  0  0  0  0
  130.4823  135.9347  158.6761 H   0  0  0  0  0  0  0  0  0  0  0  0
  131.2139  131.6249  155.4990 H   0  0  0  0  0  0  0  0  0  0  0  0
  130.7949  129.2312  155.8532 H   0  0  0  0  0  0  0  0  0  0  0  0
  129.8700  128.4322  157.9876 H   0  0  0  0  0  0  0  0  0  0  0  0
  129.3546  130.0186  159.7899 H   0  0  0  0  0  0  0  0  0  0  0  0
  132.1852  135.8823  160.2383 H   0  0  0  0  0  0  0  0  0  0  0  0
  132.3484  136.2436  161.9833 H   0  0  0  0  0  0  0  0  0  0  0  0
  134.2584  137.0911  162.4694 H   0  0  0  0  0  0  0  0  0  0  0  0
  139.8910  134.3457  166.1663 H   0  0  0  0  0  0  0  0  0  0  0  0
  140.2300  136.5418  167.2211 H   0  0  0  0  0  0  0  0  0  0  0  0
  139.1461  138.5437  166.3013 H   0  0  0  0  0  0  0  0  0  0  0  0
  1  2  1  0
  1 38  1  0
  1 39  1  0
  1 40  1  0
  2 26  2  0
  2  3  1  0
  3  4  2  0
  3 41  1  0
  4  5  1  0
  4 42  1  0
  5  6  1  0
  5 25  2  0
  6 24  1  0
  6  7  2  0
  7  8  1  0
  7 43  1  0
  8  9  1  0
  8 44  1  0
  8 45  1  0
  9 10  1  1
  9 11  1  0
  9 24  1  0
 11 12  1  0
 11 46  1  0
 11 47  1  0
 12 13  1  0
 12 48  1  0
 13 22  1  0
 13 14  2  0
 14 15  1  0
 14 16  1  0
 16 21  2  0
 16 17  1  0
 17 18  2  0
 17 49  1  0
 18 19  1  0
 18 50  1  0
 19 20  2  0
 19 51  1  0
 20 21  1  0
 20 52  1  0
 21 22  1  0
 22 23  1  0
 24 53  1  0
 24 54  1  0
 25 26  1  0
 25 55  1  0
 26 27  1  0
 27 36  1  0
 27 28  2  0
 28 29  1  0
 29 35  2  0
 29 30  1  0
 30 31  1  0
 30 32  2  0
 32 33  1  0
 32 56  1  0
 33 34  2  0
 33 57  1  0
 34 35  1  0
 34 58  1  0
 35 36  1  0
 36 37  1  0
M  CHG  1  14   1
M  END
>  <DOCK_score>  (1) 
-58.146713

>  <SMILES>  (1) 
Cc1ccc(C2=CC[C@@H](CNc3[nH]c4ccccc4[nH+]3)C2)cc1-c1nc2c(F)cccc2[nH]1

$$$$
