OC(c1ccccc1)[C@H]1COc2ccccc2C1Nc1[nH]cc(-c2ccc(Br)cc2)[nH+]1
     RDKit          3D

 54 58  0  0  1  0  0  0  0  0999 V2000
  129.6246  131.4123  159.8596 O   0  0  0  0  0  0  0  0  0  0  0  0
  128.7306  132.4728  159.5161 C   0  0  1  0  0  0  0  0  0  0  0  0
  127.3854  132.2201  160.1468 C   0  0  0  0  0  0  0  0  0  0  0  0
  126.2365  132.6844  159.5340 C   0  0  0  0  0  0  0  0  0  0  0  0
  125.0024  132.4492  160.1107 C   0  0  0  0  0  0  0  0  0  0  0  0
  124.9178  131.7569  161.3042 C   0  0  0  0  0  0  0  0  0  0  0  0
  126.0670  131.2972  161.9196 C   0  0  0  0  0  0  0  0  0  0  0  0
  127.3008  131.5291  161.3410 C   0  0  0  0  0  0  0  0  0  0  0  0
  129.2930  133.8001  160.0290 C   0  0  1  0  0  0  0  0  0  0  0  0
  128.8333  134.6277  159.4887 H   0  0  0  0  0  0  0  0  0  0  0  0
  129.0048  133.9385  161.5294 C   0  0  0  0  0  0  0  0  0  0  0  0
  129.4482  135.2275  161.9559 O   0  0  0  0  0  0  0  0  0  0  0  0
  130.7015  135.6160  161.6042 C   0  0  0  0  0  0  0  0  0  0  0  0
  131.2837  136.6784  162.2887 C   0  0  0  0  0  0  0  0  0  0  0  0
  132.5516  137.1079  161.9547 C   0  0  0  0  0  0  0  0  0  0  0  0
  133.2472  136.4815  160.9368 C   0  0  0  0  0  0  0  0  0  0  0  0
  132.6730  135.4256  160.2566 C   0  0  0  0  0  0  0  0  0  0  0  0
  131.4012  134.9890  160.5884 C   0  0  0  0  0  0  0  0  0  0  0  0
  130.8098  133.8305  159.8259 C   0  0  2  0  0  0  0  0  0  0  0  0
  131.1077  133.9828  158.3996 N   0  0  0  0  0  0  0  0  0  0  0  0
  131.2556  132.8625  157.5999 C   0  0  0  0  0  0  0  0  0  0  0  0
  131.7209  131.6513  158.0104 N   0  0  0  0  0  0  0  0  0  0  0  0
  132.0064  131.4197  158.9081 H   0  0  0  0  0  0  0  0  0  0  0  0
  131.7119  130.8172  156.9187 C   0  0  0  0  0  0  0  0  0  0  0  0
  131.2417  131.5421  155.8736 C   0  0  0  0  0  0  0  0  0  0  0  0
  131.0573  131.0536  154.4852 C   0  0  0  0  0  0  0  0  0  0  0  0
  130.5619  131.9093  153.5028 C   0  0  0  0  0  0  0  0  0  0  0  0
  130.3919  131.4499  152.2128 C   0  0  0  0  0  0  0  0  0  0  0  0
  130.7130  130.1417  151.8935 C   0  0  0  0  0  0  0  0  0  0  0  0
  130.4779  129.5191  150.1234 Br  0  0  0  0  0  0  0  0  0  0  0  0
  131.1998  129.2863  152.8666 C   0  0  0  0  0  0  0  0  0  0  0  0
  131.3785  129.7373  154.1584 C   0  0  0  0  0  0  0  0  0  0  0  0
  130.9752  132.7948  156.3212 N   0  0  0  0  0  0  0  0  0  0  0  0
  130.6301  133.5233  155.7818 H   0  0  0  0  0  0  0  0  0  0  0  0
  129.3309  130.5392  159.5650 H   0  0  0  0  0  0  0  0  0  0  0  0
  128.6210  132.5191  158.4327 H   0  0  0  0  0  0  0  0  0  0  0  0
  126.3031  133.2281  158.6032 H   0  0  0  0  0  0  0  0  0  0  0  0
  124.1045  132.8087  159.6300 H   0  0  0  0  0  0  0  0  0  0  0  0
  123.9538  131.5755  161.7560 H   0  0  0  0  0  0  0  0  0  0  0  0
  126.0009  130.7567  162.8522 H   0  0  0  0  0  0  0  0  0  0  0  0
  128.1988  131.1699  161.8219 H   0  0  0  0  0  0  0  0  0  0  0  0
  129.5413  133.1652  162.0791 H   0  0  0  0  0  0  0  0  0  0  0  0
  127.9341  133.8406  161.7087 H   0  0  0  0  0  0  0  0  0  0  0  0
  130.7413  137.1685  163.0836 H   0  0  0  0  0  0  0  0  0  0  0  0
  133.0004  137.9332  162.4876 H   0  0  0  0  0  0  0  0  0  0  0  0
  134.2393  136.8178  160.6740 H   0  0  0  0  0  0  0  0  0  0  0  0
  133.2187  134.9377  159.4625 H   0  0  0  0  0  0  0  0  0  0  0  0
  131.2426  132.8985  160.1893 H   0  0  0  0  0  0  0  0  0  0  0  0
  131.2014  134.8686  158.0156 H   0  0  0  0  0  0  0  0  0  0  0  0
  132.0204  129.7823  156.8970 H   0  0  0  0  0  0  0  0  0  0  0  0
  130.3112  132.9302  153.7509 H   0  0  0  0  0  0  0  0  0  0  0  0
  130.0081  132.1120  151.4509 H   0  0  0  0  0  0  0  0  0  0  0  0
  131.4445  128.2654  152.6133 H   0  0  0  0  0  0  0  0  0  0  0  0
  131.7624  129.0702  154.9161 H   0  0  0  0  0  0  0  0  0  0  0  0
  1  2  1  0
  1 35  1  0
  2  3  1  0
  2  9  1  0
  2 36  1  6
  3  8  1  0
  3  4  2  0
  4  5  1  0
  4 37  1  0
  5  6  2  0
  5 38  1  0
  6  7  1  0
  6 39  1  0
  7  8  2  0
  7 40  1  0
  8 41  1  0
  9 10  1  6
  9 19  1  0
  9 11  1  0
 11 12  1  0
 11 42  1  0
 11 43  1  0
 12 13  1  0
 13 18  2  0
 13 14  1  0
 14 15  2  0
 14 44  1  0
 15 16  1  0
 15 45  1  0
 16 17  2  0
 16 46  1  0
 17 18  1  0
 17 47  1  0
 18 19  1  0
 19 20  1  0
 19 48  1  1
 20 49  1  0
 21 20  1  0
 21 33  2  0
 21 22  1  0
 22 23  1  0
 22 24  1  0
 24 25  2  0
 24 50  1  0
 25 26  1  0
 25 33  1  0
 26 32  1  0
 26 27  2  0
 27 28  1  0
 27 51  1  0
 28 29  2  0
 28 52  1  0
 29 30  1  0
 29 31  1  0
 31 32  2  0
 31 53  1  0
 32 54  1  0
 33 34  1  0
M  CHG  1  33   1
M  END
>  <DOCK_score>  (1) 
-57.318455

>  <SMILES>  (1) 
OC(c1ccccc1)[C@H]1COc2ccccc2C1Nc1[nH]cc(-c2ccc(Br)cc2)[nH+]1

$$$$
