Clc1ccc([C@@H](Nc2[nH]cc(-c3ccc(-c4ccccc4)cc3)[nH+]2)c2cccnc2)cc1
     RDKit          3D

 54 58  0  0  1  0  0  0  0  0999 V2000
  125.6912  135.4187  162.7890 Cl  0  0  0  0  0  0  0  0  0  0  0  0
  127.3679  135.5543  162.3596 C   0  0  0  0  0  0  0  0  0  0  0  0
  128.3466  135.2121  163.2756 C   0  0  0  0  0  0  0  0  0  0  0  0
  129.6813  135.3208  162.9333 C   0  0  0  0  0  0  0  0  0  0  0  0
  130.0383  135.7708  161.6758 C   0  0  0  0  0  0  0  0  0  0  0  0
  131.4937  135.8890  161.3033 C   0  0  1  0  0  0  0  0  0  0  0  0
  132.0691  135.1368  161.8429 H   0  0  0  0  0  0  0  0  0  0  0  0
  131.6473  135.6797  159.8615 N   0  0  0  0  0  0  0  0  0  0  0  0
  131.2519  134.4826  159.2898 C   0  0  0  0  0  0  0  0  0  0  0  0
  130.7142  133.4250  159.9569 N   0  0  0  0  0  0  0  0  0  0  0  0
  130.5406  133.3752  160.9100 H   0  0  0  0  0  0  0  0  0  0  0  0
  130.4626  132.4416  159.0317 C   0  0  0  0  0  0  0  0  0  0  0  0
  130.8534  132.9261  157.8263 C   0  0  0  0  0  0  0  0  0  0  0  0
  130.7711  132.2110  156.5303 C   0  0  0  0  0  0  0  0  0  0  0  0
  130.0143  132.7436  155.4865 C   0  0  0  0  0  0  0  0  0  0  0  0
  129.9384  132.0794  154.2823 C   0  0  0  0  0  0  0  0  0  0  0  0
  130.6188  130.8740  154.1067 C   0  0  0  0  0  0  0  0  0  0  0  0
  130.5370  130.1598  152.8095 C   0  0  0  0  0  0  0  0  0  0  0  0
  130.6420  128.7704  152.7687 C   0  0  0  0  0  0  0  0  0  0  0  0
  130.5602  128.1102  151.5595 C   0  0  0  0  0  0  0  0  0  0  0  0
  130.3849  128.8255  150.3884 C   0  0  0  0  0  0  0  0  0  0  0  0
  130.2860  130.2048  150.4223 C   0  0  0  0  0  0  0  0  0  0  0  0
  130.3611  130.8752  151.6262 C   0  0  0  0  0  0  0  0  0  0  0  0
  131.3756  130.3422  155.1496 C   0  0  0  0  0  0  0  0  0  0  0  0
  131.4513  131.0060  156.3541 C   0  0  0  0  0  0  0  0  0  0  0  0
  131.3385  134.1787  158.0179 N   0  0  0  0  0  0  0  0  0  0  0  0
  131.6910  134.7578  157.3240 H   0  0  0  0  0  0  0  0  0  0  0  0
  131.9957  137.2623  161.6679 C   0  0  0  0  0  0  0  0  0  0  0  0
  131.1453  138.1881  162.2535 C   0  0  0  0  0  0  0  0  0  0  0  0
  131.6505  139.4392  162.5717 C   0  0  0  0  0  0  0  0  0  0  0  0
  132.9756  139.7204  162.2965 C   0  0  0  0  0  0  0  0  0  0  0  0
  133.7555  138.8152  161.7387 N   0  0  0  0  0  0  0  0  0  0  0  0
  133.3105  137.6133  161.4279 C   0  0  0  0  0  0  0  0  0  0  0  0
  129.0607  136.1179  160.7621 C   0  0  0  0  0  0  0  0  0  0  0  0
  127.7257  136.0051  161.1014 C   0  0  0  0  0  0  0  0  0  0  0  0
  128.0679  134.8605  164.2579 H   0  0  0  0  0  0  0  0  0  0  0  0
  130.4454  135.0536  163.6481 H   0  0  0  0  0  0  0  0  0  0  0  0
  132.0261  136.3800  159.3075 H   0  0  0  0  0  0  0  0  0  0  0  0
  130.0354  131.4690  159.2267 H   0  0  0  0  0  0  0  0  0  0  0  0
  129.4916  133.6790  155.6212 H   0  0  0  0  0  0  0  0  0  0  0  0
  129.3525  132.4917  153.4742 H   0  0  0  0  0  0  0  0  0  0  0  0
  130.7830  128.2114  153.6819 H   0  0  0  0  0  0  0  0  0  0  0  0
  130.6371  127.0335  151.5272 H   0  0  0  0  0  0  0  0  0  0  0  0
  130.3256  128.3049  149.4440 H   0  0  0  0  0  0  0  0  0  0  0  0
  130.1500  130.7580  149.5049 H   0  0  0  0  0  0  0  0  0  0  0  0
  130.2840  131.9522  151.6515 H   0  0  0  0  0  0  0  0  0  0  0  0
  131.9022  129.4092  155.0132 H   0  0  0  0  0  0  0  0  0  0  0  0
  132.0379  130.5938  157.1618 H   0  0  0  0  0  0  0  0  0  0  0  0
  130.1141  137.9401  162.4572 H   0  0  0  0  0  0  0  0  0  0  0  0
  131.0169  140.1846  163.0291 H   0  0  0  0  0  0  0  0  0  0  0  0
  133.3768  140.6929  162.5410 H   0  0  0  0  0  0  0  0  0  0  0  0
  133.9803  136.8963  160.9765 H   0  0  0  0  0  0  0  0  0  0  0  0
  129.3403  136.4733  159.7813 H   0  0  0  0  0  0  0  0  0  0  0  0
  126.9621  136.2723  160.3860 H   0  0  0  0  0  0  0  0  0  0  0  0
  1  2  1  0
  2 35  2  0
  2  3  1  0
  3  4  2  0
  3 36  1  0
  4  5  1  0
  4 37  1  0
  5  6  1  0
  5 34  2  0
  6  7  1  1
  6  8  1  0
  6 28  1  0
  8 38  1  0
  9  8  1  0
  9 26  2  0
  9 10  1  0
 10 11  1  0
 10 12  1  0
 12 13  2  0
 12 39  1  0
 13 14  1  0
 13 26  1  0
 14 25  1  0
 14 15  2  0
 15 16  1  0
 15 40  1  0
 16 17  2  0
 16 41  1  0
 17 18  1  0
 17 24  1  0
 18 23  1  0
 18 19  2  0
 19 20  1  0
 19 42  1  0
 20 21  2  0
 20 43  1  0
 21 22  1  0
 21 44  1  0
 22 23  2  0
 22 45  1  0
 23 46  1  0
 24 25  2  0
 24 47  1  0
 25 48  1  0
 26 27  1  0
 28 33  1  0
 28 29  2  0
 29 30  1  0
 29 49  1  0
 30 31  2  0
 30 50  1  0
 31 32  1  0
 31 51  1  0
 32 33  2  0
 33 52  1  0
 34 35  1  0
 34 53  1  0
 35 54  1  0
M  CHG  1  26   1
M  END
>  <DOCK_score>  (1) 
-60.509827

>  <SMILES>  (1) 
Clc1ccc([C@@H](Nc2[nH]cc(-c3ccc(-c4ccccc4)cc3)[nH+]2)c2cccnc2)cc1

$$$$
