O=C1CCC([NH+]=C(NCc2ncccc2Cl)NC2CC3COC[C@H]3C2)CN1
     RDKit          3D

 54 57  0  0  1  0  0  0  0  0999 V2000
  123.7719  133.8358  161.8012 O   0  0  0  0  0  0  0  0  0  0  0  0
  124.9528  133.9126  161.5362 C   0  0  0  0  0  0  0  0  0  0  0  0
  125.8131  132.7034  161.7673 C   0  0  0  0  0  0  0  0  0  0  0  0
  127.2879  133.1121  161.7993 C   0  0  0  0  0  0  0  0  0  0  0  0
  127.5731  133.9938  160.5775 C   0  0  2  0  0  0  0  0  0  0  0  0
  129.0115  134.2570  160.4863 N   0  0  0  0  0  0  0  0  0  0  0  0
  129.5504  134.2903  161.2920 H   0  0  0  0  0  0  0  0  0  0  0  0
  129.5668  134.4464  159.3224 C   0  0  0  0  0  0  0  0  0  0  0  0
  128.8029  134.3992  158.1803 N   0  0  0  0  0  0  0  0  0  0  0  0
  129.4001  133.9574  156.9175 C   0  0  0  0  0  0  0  0  0  0  0  0
  129.9139  132.5490  157.0705 C   0  0  0  0  0  0  0  0  0  0  0  0
  129.7738  131.9256  158.2242 N   0  0  0  0  0  0  0  0  0  0  0  0
  130.2073  130.6935  158.4040 C   0  0  0  0  0  0  0  0  0  0  0  0
  130.8301  130.0058  157.3793 C   0  0  0  0  0  0  0  0  0  0  0  0
  130.9959  130.6273  156.1515 C   0  0  0  0  0  0  0  0  0  0  0  0
  130.5219  131.9226  155.9977 C   0  0  0  0  0  0  0  0  0  0  0  0
  130.6955  132.7482  154.4806 Cl  0  0  0  0  0  0  0  0  0  0  0  0
  130.9164  134.6935  159.2369 N   0  0  0  0  0  0  0  0  0  0  0  0
  131.7306  134.7439  160.4539 C   0  0  2  0  0  0  0  0  0  0  0  0
  131.3361  135.9594  161.3280 C   0  0  0  0  0  0  0  0  0  0  0  0
  132.5866  136.2357  162.1855 C   0  0  1  0  0  0  0  0  0  0  0  0
  132.5149  135.3685  163.4629 C   0  0  0  0  0  0  0  0  0  0  0  0
  133.8624  134.8761  163.6417 O   0  0  0  0  0  0  0  0  0  0  0  0
  134.2887  134.4958  162.3125 C   0  0  0  0  0  0  0  0  0  0  0  0
  133.7908  135.6432  161.4045 C   0  0  1  0  0  0  0  0  0  0  0  0
  134.5662  136.3845  161.2110 H   0  0  0  0  0  0  0  0  0  0  0  0
  133.2247  135.0373  160.1053 C   0  0  0  0  0  0  0  0  0  0  0  0
  126.8192  135.3144  160.7398 C   0  0  0  0  0  0  0  0  0  0  0  0
  125.4181  135.0662  161.0559 N   0  0  0  0  0  0  0  0  0  0  0  0
  125.6535  131.9864  160.9621 H   0  0  0  0  0  0  0  0  0  0  0  0
  125.5436  132.2454  162.7189 H   0  0  0  0  0  0  0  0  0  0  0  0
  127.9161  132.2220  161.7641 H   0  0  0  0  0  0  0  0  0  0  0  0
  127.4939  133.6716  162.7117 H   0  0  0  0  0  0  0  0  0  0  0  0
  127.2361  133.4863  159.6735 H   0  0  0  0  0  0  0  0  0  0  0  0
  127.8687  134.6582  158.2106 H   0  0  0  0  0  0  0  0  0  0  0  0
  128.6472  133.9859  156.1299 H   0  0  0  0  0  0  0  0  0  0  0  0
  130.2257  134.6187  156.6551 H   0  0  0  0  0  0  0  0  0  0  0  0
  130.0744  130.2159  159.3635 H   0  0  0  0  0  0  0  0  0  0  0  0
  131.1828  128.9967  157.5332 H   0  0  0  0  0  0  0  0  0  0  0  0
  131.4785  130.1143  155.3328 H   0  0  0  0  0  0  0  0  0  0  0  0
  131.3299  134.8344  158.3708 H   0  0  0  0  0  0  0  0  0  0  0  0
  131.6405  133.8161  161.0188 H   0  0  0  0  0  0  0  0  0  0  0  0
  130.4857  135.7116  161.9633 H   0  0  0  0  0  0  0  0  0  0  0  0
  131.1048  136.8218  160.7028 H   0  0  0  0  0  0  0  0  0  0  0  0
  132.7171  137.2943  162.4103 H   0  0  0  0  0  0  0  0  0  0  0  0
  131.8220  134.5391  163.3214 H   0  0  0  0  0  0  0  0  0  0  0  0
  132.2148  135.9744  164.3180 H   0  0  0  0  0  0  0  0  0  0  0  0
  133.8280  133.5521  162.0204 H   0  0  0  0  0  0  0  0  0  0  0  0
  135.3751  134.4197  162.2683 H   0  0  0  0  0  0  0  0  0  0  0  0
  133.3034  135.7517  159.2860 H   0  0  0  0  0  0  0  0  0  0  0  0
  133.7466  134.1130  159.8574 H   0  0  0  0  0  0  0  0  0  0  0  0
  127.2734  135.8917  161.5450 H   0  0  0  0  0  0  0  0  0  0  0  0
  126.8841  135.8826  159.8121 H   0  0  0  0  0  0  0  0  0  0  0  0
  124.7844  135.7856  160.9074 H   0  0  0  0  0  0  0  0  0  0  0  0
  1  2  2  0
  2 29  1  0
  2  3  1  0
  3  4  1  0
  3 30  1  0
  3 31  1  0
  4  5  1  0
  4 32  1  0
  4 33  1  0
  5  6  1  0
  5 28  1  0
  5 34  1  6
  6  7  1  0
  8  6  2  0
  8  9  1  0
  8 18  1  0
  9 10  1  0
  9 35  1  0
 10 11  1  0
 10 36  1  0
 10 37  1  0
 11 16  1  0
 11 12  2  0
 12 13  1  0
 13 14  2  0
 13 38  1  0
 14 15  1  0
 14 39  1  0
 15 16  2  0
 15 40  1  0
 16 17  1  0
 18 19  1  0
 18 41  1  0
 19 27  1  0
 19 20  1  0
 19 42  1  1
 20 21  1  0
 20 43  1  0
 20 44  1  0
 21 25  1  0
 21 22  1  0
 21 45  1  1
 22 23  1  0
 22 46  1  0
 22 47  1  0
 23 24  1  0
 24 25  1  0
 24 48  1  0
 24 49  1  0
 25 26  1  6
 25 27  1  0
 27 50  1  0
 27 51  1  0
 28 29  1  0
 28 52  1  0
 28 53  1  0
 29 54  1  0
M  CHG  1   6   1
M  END
>  <DOCK_score>  (1) 
-49.251545

>  <SMILES>  (1) 
O=C1CCC([NH+]=C(NCc2ncccc2Cl)NC2CC3COC[C@H]3C2)CN1

$$$$
