Cc1cncc(Nc2ccc(-c3n[nH]cc3C[NH2+]Cc3conc3C)o2)n1
     RDKit          3D

 47 50  0  0  0  0  0  0  0  0999 V2000
  126.0659  139.3559  165.2738 C   0  0  0  0  0  0  0  0  0  0  0  0
  126.7545  138.3424  164.3963 C   0  0  0  0  0  0  0  0  0  0  0  0
  128.0916  138.0533  164.5944 C   0  0  0  0  0  0  0  0  0  0  0  0
  128.7007  137.1648  163.8271 N   0  0  0  0  0  0  0  0  0  0  0  0
  128.0319  136.5461  162.8726 C   0  0  0  0  0  0  0  0  0  0  0  0
  126.6856  136.8386  162.6666 C   0  0  0  0  0  0  0  0  0  0  0  0
  125.9783  136.1932  161.6581 N   0  0  0  0  0  0  0  0  0  0  0  0
  126.6165  135.2583  160.8499 C   0  0  0  0  0  0  0  0  0  0  0  0
  126.0304  134.1825  160.2679 C   0  0  0  0  0  0  0  0  0  0  0  0
  127.0335  133.5098  159.5430 C   0  0  0  0  0  0  0  0  0  0  0  0
  128.1844  134.2112  159.7196 C   0  0  0  0  0  0  0  0  0  0  0  0
  129.5013  133.8730  159.1412 C   0  0  0  0  0  0  0  0  0  0  0  0
  129.7667  132.8403  158.3658 N   0  0  0  0  0  0  0  0  0  0  0  0
  131.1275  132.8823  158.0366 N   0  0  0  0  0  0  0  0  0  0  0  0
  131.5973  132.2442  157.4771 H   0  0  0  0  0  0  0  0  0  0  0  0
  131.6712  133.9680  158.6281 C   0  0  0  0  0  0  0  0  0  0  0  0
  130.6985  134.5974  159.3214 C   0  0  0  0  0  0  0  0  0  0  0  0
  130.8612  135.8542  160.1371 C   0  0  0  0  0  0  0  0  0  0  0  0
  132.2593  136.3009  160.0747 N   0  0  0  0  0  0  0  0  0  0  0  0
  132.5103  136.4877  159.1154 H   0  0  0  0  0  0  0  0  0  0  0  0
  132.8597  135.5792  160.4449 H   0  0  0  0  0  0  0  0  0  0  0  0
  132.4181  137.5257  160.8698 C   0  0  0  0  0  0  0  0  0  0  0  0
  133.8522  137.9839  160.8057 C   0  0  0  0  0  0  0  0  0  0  0  0
  134.8725  137.6488  161.6313 C   0  0  0  0  0  0  0  0  0  0  0  0
  135.9545  138.2992  161.1807 O   0  0  0  0  0  0  0  0  0  0  0  0
  135.6981  138.9660  160.2051 N   0  0  0  0  0  0  0  0  0  0  0  0
  134.4445  138.8627  159.8699 C   0  0  0  0  0  0  0  0  0  0  0  0
  133.7600  139.5448  158.7134 C   0  0  0  0  0  0  0  0  0  0  0  0
  127.9192  135.2660  160.5182 O   0  0  0  0  0  0  0  0  0  0  0  0
  126.0787  137.7310  163.4388 N   0  0  0  0  0  0  0  0  0  0  0  0
  125.6416  138.8548  166.1438 H   0  0  0  0  0  0  0  0  0  0  0  0
  126.7886  140.1034  165.6016 H   0  0  0  0  0  0  0  0  0  0  0  0
  125.2698  139.8428  164.7106 H   0  0  0  0  0  0  0  0  0  0  0  0
  128.6407  138.5548  165.3777 H   0  0  0  0  0  0  0  0  0  0  0  0
  128.5286  135.8173  162.2493 H   0  0  0  0  0  0  0  0  0  0  0  0
  125.0399  136.3949  161.5183 H   0  0  0  0  0  0  0  0  0  0  0  0
  124.9922  133.8956  160.3461 H   0  0  0  0  0  0  0  0  0  0  0  0
  126.9114  132.6099  158.9586 H   0  0  0  0  0  0  0  0  0  0  0  0
  132.7038  134.2770  158.5605 H   0  0  0  0  0  0  0  0  0  0  0  0
  130.5902  135.6524  161.1734 H   0  0  0  0  0  0  0  0  0  0  0  0
  130.2126  136.6336  159.7370 H   0  0  0  0  0  0  0  0  0  0  0  0
  132.1470  137.3239  161.9061 H   0  0  0  0  0  0  0  0  0  0  0  0
  131.7694  138.3052  160.4699 H   0  0  0  0  0  0  0  0  0  0  0  0
  134.8238  136.9882  162.4842 H   0  0  0  0  0  0  0  0  0  0  0  0
  133.8231  138.9110  157.8288 H   0  0  0  0  0  0  0  0  0  0  0  0
  132.7131  139.7185  158.9621 H   0  0  0  0  0  0  0  0  0  0  0  0
  134.2488  140.4981  158.5130 H   0  0  0  0  0  0  0  0  0  0  0  0
  1  2  1  0
  1 31  1  0
  1 32  1  0
  1 33  1  0
  2 30  2  0
  2  3  1  0
  3  4  2  0
  3 34  1  0
  4  5  1  0
  5  6  2  0
  5 35  1  0
  6  7  1  0
  6 30  1  0
  7  8  1  0
  7 36  1  0
  8 29  1  0
  8  9  2  0
  9 10  1  0
  9 37  1  0
 10 11  2  0
 10 38  1  0
 11 12  1  0
 11 29  1  0
 12 17  1  0
 12 13  2  0
 13 14  1  0
 14 15  1  0
 14 16  1  0
 16 17  2  0
 16 39  1  0
 17 18  1  0
 18 19  1  0
 18 40  1  0
 18 41  1  0
 19 20  1  0
 19 21  1  0
 19 22  1  0
 22 23  1  0
 22 42  1  0
 22 43  1  0
 23 27  1  0
 23 24  2  0
 24 25  1  0
 24 44  1  0
 25 26  1  0
 26 27  2  0
 27 28  1  0
 28 45  1  0
 28 46  1  0
 28 47  1  0
M  CHG  1  19   1
M  END
>  <DOCK_score>  (1) 
-44.071205

>  <SMILES>  (1) 
Cc1cncc(Nc2ccc(-c3n[nH]cc3C[NH2+]Cc3conc3C)o2)n1

$$$$
