O=C1CC[C@H](NC(NC2CCC2)=[NH+][C@@H]2COC3(CCC3)C2)CN1
     RDKit          3D

 52 55  0  0  1  0  0  0  0  0999 V2000
  123.7995  133.6685  161.3094 O   0  0  0  0  0  0  0  0  0  0  0  0
  124.9722  133.9472  161.1746 C   0  0  0  0  0  0  0  0  0  0  0  0
  125.9202  132.8550  160.7701 C   0  0  0  0  0  0  0  0  0  0  0  0
  127.3601  133.2762  161.0744 C   0  0  0  0  0  0  0  0  0  0  0  0
  127.5815  134.6860  160.5133 C   0  0  2  0  0  0  0  0  0  0  0  0
  127.2862  134.7127  159.4645 H   0  0  0  0  0  0  0  0  0  0  0  0
  128.9962  135.0468  160.6349 N   0  0  0  0  0  0  0  0  0  0  0  0
  129.8704  134.7544  159.6148 C   0  0  0  0  0  0  0  0  0  0  0  0
  129.4169  134.1233  158.4807 N   0  0  0  0  0  0  0  0  0  0  0  0
  130.3121  133.2451  157.7235 C   0  0  0  0  0  0  0  0  0  0  0  0
  129.5731  132.2163  156.8513 C   0  0  0  0  0  0  0  0  0  0  0  0
  130.6484  131.2019  157.2750 C   0  0  0  0  0  0  0  0  0  0  0  0
  130.8428  132.0547  158.5397 C   0  0  0  0  0  0  0  0  0  0  0  0
  131.1289  135.0754  159.7230 N   0  0  0  0  0  0  0  0  0  0  0  0
  131.7457  134.8691  159.0033 H   0  0  0  0  0  0  0  0  0  0  0  0
  131.6122  135.7479  160.9315 C   0  0  2  0  0  0  0  0  0  0  0  0
  131.4364  135.1311  161.8129 H   0  0  0  0  0  0  0  0  0  0  0  0
  130.9500  137.1343  161.0906 C   0  0  0  0  0  0  0  0  0  0  0  0
  131.9595  138.0469  161.5461 O   0  0  0  0  0  0  0  0  0  0  0  0
  133.1965  137.3545  161.7047 C   0  0  0  0  0  0  0  0  0  0  0  0
  133.6303  137.0775  163.1443 C   0  0  0  0  0  0  0  0  0  0  0  0
  135.0705  137.3442  162.6706 C   0  0  0  0  0  0  0  0  0  0  0  0
  134.4623  138.1956  161.5415 C   0  0  0  0  0  0  0  0  0  0  0  0
  133.1177  136.1116  160.7973 C   0  0  0  0  0  0  0  0  0  0  0  0
  126.7298  135.6737  161.3116 C   0  0  0  0  0  0  0  0  0  0  0  0
  125.3507  135.2070  161.3937 N   0  0  0  0  0  0  0  0  0  0  0  0
  125.8171  132.6632  159.7021 H   0  0  0  0  0  0  0  0  0  0  0  0
  125.6838  131.9467  161.3245 H   0  0  0  0  0  0  0  0  0  0  0  0
  128.0535  132.5802  160.6023 H   0  0  0  0  0  0  0  0  0  0  0  0
  127.5210  133.2807  162.1525 H   0  0  0  0  0  0  0  0  0  0  0  0
  129.3161  135.4920  161.4351 H   0  0  0  0  0  0  0  0  0  0  0  0
  128.5041  134.2598  158.1818 H   0  0  0  0  0  0  0  0  0  0  0  0
  131.0909  133.7915  157.1913 H   0  0  0  0  0  0  0  0  0  0  0  0
  128.5751  131.9722  157.2150 H   0  0  0  0  0  0  0  0  0  0  0  0
  129.5909  132.4528  155.7875 H   0  0  0  0  0  0  0  0  0  0  0  0
  131.5188  131.1888  156.6191 H   0  0  0  0  0  0  0  0  0  0  0  0
  130.2539  130.2059  157.4762 H   0  0  0  0  0  0  0  0  0  0  0  0
  131.8855  132.1607  158.8389 H   0  0  0  0  0  0  0  0  0  0  0  0
  130.1917  131.7664  159.3651 H   0  0  0  0  0  0  0  0  0  0  0  0
  130.5556  137.4680  160.1308 H   0  0  0  0  0  0  0  0  0  0  0  0
  130.1449  137.0778  161.8232 H   0  0  0  0  0  0  0  0  0  0  0  0
  133.2625  137.8121  163.8608 H   0  0  0  0  0  0  0  0  0  0  0  0
  133.4578  136.0496  163.4630 H   0  0  0  0  0  0  0  0  0  0  0  0
  135.5850  136.4514  162.3149 H   0  0  0  0  0  0  0  0  0  0  0  0
  135.6647  137.9203  163.3798 H   0  0  0  0  0  0  0  0  0  0  0  0
  134.9553  138.0618  160.5786 H   0  0  0  0  0  0  0  0  0  0  0  0
  134.3283  139.2440  161.8081 H   0  0  0  0  0  0  0  0  0  0  0  0
  133.7514  135.3088  161.1741 H   0  0  0  0  0  0  0  0  0  0  0  0
  133.3719  136.3601  159.7670 H   0  0  0  0  0  0  0  0  0  0  0  0
  127.1363  135.7685  162.3185 H   0  0  0  0  0  0  0  0  0  0  0  0
  126.7548  136.6478  160.8231 H   0  0  0  0  0  0  0  0  0  0  0  0
  124.6652  135.8549  161.6198 H   0  0  0  0  0  0  0  0  0  0  0  0
  1  2  2  0
  2 26  1  0
  2  3  1  0
  3  4  1  0
  3 27  1  0
  3 28  1  0
  4  5  1  0
  4 29  1  0
  4 30  1  0
  5  6  1  6
  5  7  1  0
  5 25  1  0
  7 31  1  0
  8  7  1  0
  8  9  1  0
  8 14  2  0
  9 10  1  0
  9 32  1  0
 10 13  1  0
 10 11  1  0
 10 33  1  0
 11 12  1  0
 11 34  1  0
 11 35  1  0
 12 13  1  0
 12 36  1  0
 12 37  1  0
 13 38  1  0
 13 39  1  0
 14 15  1  0
 14 16  1  0
 16 17  1  1
 16 24  1  0
 16 18  1  0
 18 19  1  0
 18 40  1  0
 18 41  1  0
 19 20  1  0
 20 23  1  0
 20 21  1  0
 20 24  1  0
 21 22  1  0
 21 42  1  0
 21 43  1  0
 22 23  1  0
 22 44  1  0
 22 45  1  0
 23 46  1  0
 23 47  1  0
 24 48  1  0
 24 49  1  0
 25 26  1  0
 25 50  1  0
 25 51  1  0
 26 52  1  0
M  CHG  1  14   1
M  END
>  <DOCK_score>  (1) 
-41.648884

>  <SMILES>  (1) 
O=C1CC[C@H](NC(NC2CCC2)=[NH+][C@@H]2COC3(CCC3)C2)CN1

$$$$
