NCc1nc(C[C@@H]2C[N@@H+](C(c3ccccc3)C3CCOCC3)C[C@H]2O)no1
     RDKit          3D

 56 59  0  0  1  0  0  0  0  0999 V2000
  126.5692  136.7344  162.4884 N   0  0  0  0  0  0  0  0  0  0  0  0
  126.2294  135.3305  162.2205 C   0  0  0  0  0  0  0  0  0  0  0  0
  127.4654  134.5901  161.7788 C   0  0  0  0  0  0  0  0  0  0  0  0
  128.3568  135.0059  160.9117 N   0  0  0  0  0  0  0  0  0  0  0  0
  129.2712  134.0227  160.8327 C   0  0  0  0  0  0  0  0  0  0  0  0
  130.5031  134.0180  159.9646 C   0  0  0  0  0  0  0  0  0  0  0  0
  131.6731  134.6314  160.7363 C   0  0  2  0  0  0  0  0  0  0  0  0
  131.8724  134.0560  161.6405 H   0  0  0  0  0  0  0  0  0  0  0  0
  131.3690  136.0989  161.0904 C   0  0  0  0  0  0  0  0  0  0  0  0
  132.3859  136.9292  160.4092 N   0  0  1  0  0  0  0  0  0  0  0  0
  132.0383  137.2427  159.5152 H   0  0  0  0  0  0  0  0  0  0  0  0
  132.7430  138.0818  161.2471 C   0  0  1  0  0  0  0  0  0  0  0  0
  133.7788  138.9161  160.5385 C   0  0  0  0  0  0  0  0  0  0  0  0
  134.7005  139.6415  161.2701 C   0  0  0  0  0  0  0  0  0  0  0  0
  135.6532  140.4037  160.6200 C   0  0  0  0  0  0  0  0  0  0  0  0
  135.6788  140.4473  159.2386 C   0  0  0  0  0  0  0  0  0  0  0  0
  134.7540  139.7256  158.5072 C   0  0  0  0  0  0  0  0  0  0  0  0
  133.8038  138.9604  159.1571 C   0  0  0  0  0  0  0  0  0  0  0  0
  131.4959  138.9293  161.5068 C   0  0  0  0  0  0  0  0  0  0  0  0
  131.8687  140.1377  162.3712 C   0  0  0  0  0  0  0  0  0  0  0  0
  130.6335  141.0222  162.5601 C   0  0  0  0  0  0  0  0  0  0  0  0
  130.1354  141.4218  161.2816 O   0  0  0  0  0  0  0  0  0  0  0  0
  129.7269  140.3357  160.4476 C   0  0  0  0  0  0  0  0  0  0  0  0
  130.9265  139.4251  160.1740 C   0  0  0  0  0  0  0  0  0  0  0  0
  133.5668  136.0485  160.2192 C   0  0  0  0  0  0  0  0  0  0  0  0
  132.9350  134.6842  159.8449 C   0  0  1  0  0  0  0  0  0  0  0  0
  132.6631  134.6616  158.7897 H   0  0  0  0  0  0  0  0  0  0  0  0
  133.8238  133.6113  160.1626 O   0  0  0  0  0  0  0  0  0  0  0  0
  128.9003  133.0801  161.6466 N   0  0  0  0  0  0  0  0  0  0  0  0
  127.8652  133.3864  162.1999 O   0  0  0  0  0  0  0  0  0  0  0  0
  126.9956  137.1637  161.6811 H   0  0  0  0  0  0  0  0  0  0  0  0
  125.7562  137.2526  162.7864 H   0  0  0  0  0  0  0  0  0  0  0  0
  125.4766  135.2827  161.4336 H   0  0  0  0  0  0  0  0  0  0  0  0
  125.8360  134.8723  163.1279 H   0  0  0  0  0  0  0  0  0  0  0  0
  130.3153  134.6028  159.0642 H   0  0  0  0  0  0  0  0  0  0  0  0
  130.7482  132.9927  159.6875 H   0  0  0  0  0  0  0  0  0  0  0  0
  131.4348  136.2419  162.1690 H   0  0  0  0  0  0  0  0  0  0  0  0
  130.3733  136.3674  160.7377 H   0  0  0  0  0  0  0  0  0  0  0  0
  133.1471  137.7296  162.1961 H   0  0  0  0  0  0  0  0  0  0  0  0
  134.6782  139.6105  162.3494 H   0  0  0  0  0  0  0  0  0  0  0  0
  136.3754  140.9677  161.1916 H   0  0  0  0  0  0  0  0  0  0  0  0
  136.4209  141.0453  158.7309 H   0  0  0  0  0  0  0  0  0  0  0  0
  134.7737  139.7599  157.4280 H   0  0  0  0  0  0  0  0  0  0  0  0
  133.0811  138.3969  158.5857 H   0  0  0  0  0  0  0  0  0  0  0  0
  130.7466  138.3291  162.0227 H   0  0  0  0  0  0  0  0  0  0  0  0
  132.2233  139.7948  163.3432 H   0  0  0  0  0  0  0  0  0  0  0  0
  132.6544  140.7100  161.8780 H   0  0  0  0  0  0  0  0  0  0  0  0
  129.8631  140.4623  163.0904 H   0  0  0  0  0  0  0  0  0  0  0  0
  130.9040  141.9057  163.1384 H   0  0  0  0  0  0  0  0  0  0  0  0
  129.3438  140.7257  159.5045 H   0  0  0  0  0  0  0  0  0  0  0  0
  128.9449  139.7660  160.9496 H   0  0  0  0  0  0  0  0  0  0  0  0
  131.6925  139.9836  159.6358 H   0  0  0  0  0  0  0  0  0  0  0  0
  130.6084  138.5724  159.5741 H   0  0  0  0  0  0  0  0  0  0  0  0
  134.1951  136.4171  159.4084 H   0  0  0  0  0  0  0  0  0  0  0  0
  134.1386  135.9670  161.1437 H   0  0  0  0  0  0  0  0  0  0  0  0
  134.6648  133.6430  159.6861 H   0  0  0  0  0  0  0  0  0  0  0  0
  1  2  1  0
  1 31  1  0
  1 32  1  0
  2  3  1  0
  2 33  1  0
  2 34  1  0
  3 30  1  0
  3  4  2  0
  4  5  1  0
  5  6  1  0
  5 29  2  0
  6  7  1  0
  6 35  1  0
  6 36  1  0
  7  8  1  1
  7 26  1  0
  7  9  1  0
  9 10  1  0
  9 37  1  0
  9 38  1  0
 10 11  1  6
 10 12  1  0
 10 25  1  0
 12 13  1  0
 12 19  1  0
 12 39  1  1
 13 18  1  0
 13 14  2  0
 14 15  1  0
 14 40  1  0
 15 16  2  0
 15 41  1  0
 16 17  1  0
 16 42  1  0
 17 18  2  0
 17 43  1  0
 18 44  1  0
 19 24  1  0
 19 20  1  0
 19 45  1  0
 20 21  1  0
 20 46  1  0
 20 47  1  0
 21 22  1  0
 21 48  1  0
 21 49  1  0
 22 23  1  0
 23 24  1  0
 23 50  1  0
 23 51  1  0
 24 52  1  0
 24 53  1  0
 25 26  1  0
 25 54  1  0
 25 55  1  0
 26 27  1  6
 26 28  1  0
 28 56  1  0
 29 30  1  0
M  CHG  1  10   1
M  END
>  <DOCK_score>  (1) 
-41.768135

>  <SMILES>  (1) 
NCc1nc(C[C@@H]2C[N@@H+](C(c3ccccc3)C3CCOCC3)C[C@H]2O)no1

$$$$
