CCc1ccc(-c2c[nH]c(N[C@@H](C=Cc3ccccc3O)c3ccccc3O)[nH+]2)cc1
     RDKit          3D

 57 60  0  0  1  0  0  0  0  0999 V2000
  129.5422  128.4490  150.8231 C   0  0  0  0  0  0  0  0  0  0  0  0
  130.7378  129.3912  150.9766 C   0  0  0  0  0  0  0  0  0  0  0  0
  130.6979  130.0358  152.3383 C   0  0  0  0  0  0  0  0  0  0  0  0
  131.3335  129.4293  153.4062 C   0  0  0  0  0  0  0  0  0  0  0  0
  131.3052  130.0178  154.6543 C   0  0  0  0  0  0  0  0  0  0  0  0
  130.6247  131.2199  154.8397 C   0  0  0  0  0  0  0  0  0  0  0  0
  130.5860  131.8544  156.1799 C   0  0  0  0  0  0  0  0  0  0  0  0
  130.0787  131.3024  157.3099 C   0  0  0  0  0  0  0  0  0  0  0  0
  130.2452  132.2252  158.3138 N   0  0  0  0  0  0  0  0  0  0  0  0
  129.9803  132.1196  159.2409 H   0  0  0  0  0  0  0  0  0  0  0  0
  130.8500  133.3150  157.7674 C   0  0  0  0  0  0  0  0  0  0  0  0
  131.1948  134.4710  158.4466 N   0  0  0  0  0  0  0  0  0  0  0  0
  130.9100  134.5919  159.8785 C   0  0  1  0  0  0  0  0  0  0  0  0
  131.1163  133.6420  160.3714 H   0  0  0  0  0  0  0  0  0  0  0  0
  131.7814  135.6672  160.4750 C   0  0  0  0  0  0  0  0  0  0  0  0
  132.9745  135.3580  160.9645 C   0  0  0  0  0  0  0  0  0  0  0  0
  133.8287  136.4119  161.5492 C   0  0  0  0  0  0  0  0  0  0  0  0
  134.2352  136.3264  162.8811 C   0  0  0  0  0  0  0  0  0  0  0  0
  135.0333  137.3133  163.4215 C   0  0  0  0  0  0  0  0  0  0  0  0
  135.4325  138.3892  162.6477 C   0  0  0  0  0  0  0  0  0  0  0  0
  135.0358  138.4849  161.3273 C   0  0  0  0  0  0  0  0  0  0  0  0
  134.2394  137.4987  160.7681 C   0  0  0  0  0  0  0  0  0  0  0  0
  133.8535  137.5889  159.4689 O   0  0  0  0  0  0  0  0  0  0  0  0
  129.4603  134.9547  160.0734 C   0  0  0  0  0  0  0  0  0  0  0  0
  128.7989  135.6991  159.1156 C   0  0  0  0  0  0  0  0  0  0  0  0
  127.4689  136.0314  159.2934 C   0  0  0  0  0  0  0  0  0  0  0  0
  126.7973  135.6211  160.4297 C   0  0  0  0  0  0  0  0  0  0  0  0
  127.4539  134.8767  161.3909 C   0  0  0  0  0  0  0  0  0  0  0  0
  128.7872  134.5366  161.2119 C   0  0  0  0  0  0  0  0  0  0  0  0
  129.4339  133.7995  162.1529 O   0  0  0  0  0  0  0  0  0  0  0  0
  131.0573  133.0874  156.4934 N   0  0  0  0  0  0  0  0  0  0  0  0
  131.4782  133.7031  155.8732 H   0  0  0  0  0  0  0  0  0  0  0  0
  129.9811  131.8239  153.7610 C   0  0  0  0  0  0  0  0  0  0  0  0
  130.0208  131.2293  152.5161 C   0  0  0  0  0  0  0  0  0  0  0  0
  128.6169  129.0150  150.9303 H   0  0  0  0  0  0  0  0  0  0  0  0
  129.5710  127.9830  149.8382 H   0  0  0  0  0  0  0  0  0  0  0  0
  129.5873  127.6774  151.5916 H   0  0  0  0  0  0  0  0  0  0  0  0
  131.6628  128.8258  150.8690 H   0  0  0  0  0  0  0  0  0  0  0  0
  130.6924  130.1635  150.2077 H   0  0  0  0  0  0  0  0  0  0  0  0
  131.8564  128.4954  153.2624 H   0  0  0  0  0  0  0  0  0  0  0  0
  131.8057  129.5456  155.4866 H   0  0  0  0  0  0  0  0  0  0  0  0
  129.6294  130.3247  157.4027 H   0  0  0  0  0  0  0  0  0  0  0  0
  131.6252  135.2009  157.9743 H   0  0  0  0  0  0  0  0  0  0  0  0
  131.4342  136.6895  160.5038 H   0  0  0  0  0  0  0  0  0  0  0  0
  133.3215  134.3357  160.9358 H   0  0  0  0  0  0  0  0  0  0  0  0
  133.9257  135.4884  163.4881 H   0  0  0  0  0  0  0  0  0  0  0  0
  135.3476  137.2464  164.4527 H   0  0  0  0  0  0  0  0  0  0  0  0
  136.0570  139.1581  163.0779 H   0  0  0  0  0  0  0  0  0  0  0  0
  135.3507  139.3274  160.7292 H   0  0  0  0  0  0  0  0  0  0  0  0
  133.2965  136.8562  159.1721 H   0  0  0  0  0  0  0  0  0  0  0  0
  129.3215  136.0213  158.2270 H   0  0  0  0  0  0  0  0  0  0  0  0
  126.9537  136.6134  158.5434 H   0  0  0  0  0  0  0  0  0  0  0  0
  125.7579  135.8811  160.5665 H   0  0  0  0  0  0  0  0  0  0  0  0
  126.9289  134.5560  162.2786 H   0  0  0  0  0  0  0  0  0  0  0  0
  128.8825  133.5558  162.9090 H   0  0  0  0  0  0  0  0  0  0  0  0
  129.4521  132.7554  153.8990 H   0  0  0  0  0  0  0  0  0  0  0  0
  129.5222  131.6964  151.6796 H   0  0  0  0  0  0  0  0  0  0  0  0
  1  2  1  0
  1 35  1  0
  1 36  1  0
  1 37  1  0
  2  3  1  0
  2 38  1  0
  2 39  1  0
  3 34  2  0
  3  4  1  0
  4  5  2  0
  4 40  1  0
  5  6  1  0
  5 41  1  0
  6  7  1  0
  6 33  2  0
  7 31  1  0
  7  8  2  0
  8  9  1  0
  8 42  1  0
  9 10  1  0
  9 11  1  0
 11 12  1  0
 11 31  2  0
 12 13  1  0
 12 43  1  0
 13 14  1  1
 13 15  1  0
 13 24  1  0
 15 16  2  0
 15 44  1  0
 16 17  1  0
 16 45  1  0
 17 22  1  0
 17 18  2  0
 18 19  1  0
 18 46  1  0
 19 20  2  0
 19 47  1  0
 20 21  1  0
 20 48  1  0
 21 22  2  0
 21 49  1  0
 22 23  1  0
 23 50  1  0
 24 29  1  0
 24 25  2  0
 25 26  1  0
 25 51  1  0
 26 27  2  0
 26 52  1  0
 27 28  1  0
 27 53  1  0
 28 29  2  0
 28 54  1  0
 29 30  1  0
 30 55  1  0
 31 32  1  0
 33 34  1  0
 33 56  1  0
 34 57  1  0
M  CHG  1  31   1
M  END
>  <DOCK_score>  (1) 
-64.77713

>  <SMILES>  (1) 
CCc1ccc(-c2c[nH]c(N[C@@H](C=Cc3ccccc3O)c3ccccc3O)[nH+]2)cc1

$$$$
