O=C1CC[C@H](NC(NC2CC(F)(F)C2)=[NH+][C@H]2COc3cc(Cl)ccc3C2)CN1
     RDKit          3D

 52 55  0  0  1  0  0  0  0  0999 V2000
  123.8540  133.6698  161.6160 O   0  0  0  0  0  0  0  0  0  0  0  0
  125.0179  133.8218  161.3111 C   0  0  0  0  0  0  0  0  0  0  0  0
  125.8069  132.6141  160.8938 C   0  0  0  0  0  0  0  0  0  0  0  0
  127.3051  132.9171  160.9752 C   0  0  0  0  0  0  0  0  0  0  0  0
  127.5695  134.2491  160.2630 C   0  0  2  0  0  0  0  0  0  0  0  0
  127.1405  134.2198  159.2614 H   0  0  0  0  0  0  0  0  0  0  0  0
  129.0134  134.4801  160.1727 N   0  0  0  0  0  0  0  0  0  0  0  0
  129.7157  134.0234  159.0827 C   0  0  0  0  0  0  0  0  0  0  0  0
  129.0632  133.3500  158.0773 N   0  0  0  0  0  0  0  0  0  0  0  0
  129.8117  132.8633  156.9158 C   0  0  0  0  0  0  0  0  0  0  0  0
  129.1182  131.7068  156.1766 C   0  0  0  0  0  0  0  0  0  0  0  0
  130.5138  131.0762  156.0204 C   0  0  0  0  0  0  0  0  0  0  0  0
  131.1828  131.4797  154.8599 F   0  0  0  0  0  0  0  0  0  0  0  0
  130.5268  129.6889  156.2020 F   0  0  0  0  0  0  0  0  0  0  0  0
  130.9254  131.8653  157.2745 C   0  0  0  0  0  0  0  0  0  0  0  0
  131.0004  134.2291  159.0023 N   0  0  0  0  0  0  0  0  0  0  0  0
  131.4229  134.3240  158.1343 H   0  0  0  0  0  0  0  0  0  0  0  0
  131.8060  134.3167  160.2227 C   0  0  1  0  0  0  0  0  0  0  0  0
  131.3588  133.7009  161.0031 H   0  0  0  0  0  0  0  0  0  0  0  0
  133.2335  133.8335  159.9360 C   0  0  0  0  0  0  0  0  0  0  0  0
  133.9632  133.8320  161.1638 O   0  0  0  0  0  0  0  0  0  0  0  0
  133.9106  134.9492  161.9349 C   0  0  0  0  0  0  0  0  0  0  0  0
  134.8710  135.1163  162.9275 C   0  0  0  0  0  0  0  0  0  0  0  0
  134.8480  136.2363  163.7350 C   0  0  0  0  0  0  0  0  0  0  0  0
  136.0483  136.4399  164.9725 Cl  0  0  0  0  0  0  0  0  0  0  0  0
  133.8668  137.1961  163.5569 C   0  0  0  0  0  0  0  0  0  0  0  0
  132.9162  137.0354  162.5682 C   0  0  0  0  0  0  0  0  0  0  0  0
  132.9325  135.9121  161.7580 C   0  0  0  0  0  0  0  0  0  0  0  0
  131.8763  135.7724  160.6910 C   0  0  0  0  0  0  0  0  0  0  0  0
  126.9197  135.3735  161.0704 C   0  0  0  0  0  0  0  0  0  0  0  0
  125.5285  135.0526  161.3639 N   0  0  0  0  0  0  0  0  0  0  0  0
  125.5465  132.3477  159.8694 H   0  0  0  0  0  0  0  0  0  0  0  0
  125.5697  131.7805  161.5548 H   0  0  0  0  0  0  0  0  0  0  0  0
  127.8675  132.1216  160.4863 H   0  0  0  0  0  0  0  0  0  0  0  0
  127.6079  132.9928  162.0195 H   0  0  0  0  0  0  0  0  0  0  0  0
  129.4738  134.9553  160.8821 H   0  0  0  0  0  0  0  0  0  0  0  0
  128.1073  133.1969  158.1372 H   0  0  0  0  0  0  0  0  0  0  0  0
  130.1412  133.6671  156.2575 H   0  0  0  0  0  0  0  0  0  0  0  0
  128.4449  131.1267  156.8075 H   0  0  0  0  0  0  0  0  0  0  0  0
  128.6638  132.0031  155.2311 H   0  0  0  0  0  0  0  0  0  0  0  0
  131.9276  132.2893  157.2143 H   0  0  0  0  0  0  0  0  0  0  0  0
  130.7471  131.3286  158.2062 H   0  0  0  0  0  0  0  0  0  0  0  0
  133.2039  132.8243  159.5251 H   0  0  0  0  0  0  0  0  0  0  0  0
  133.7128  134.5061  159.2247 H   0  0  0  0  0  0  0  0  0  0  0  0
  135.6366  134.3675  163.0672 H   0  0  0  0  0  0  0  0  0  0  0  0
  133.8470  138.0720  164.1882 H   0  0  0  0  0  0  0  0  0  0  0  0
  132.1541  137.7877  162.4284 H   0  0  0  0  0  0  0  0  0  0  0  0
  130.9095  136.0701  161.0966 H   0  0  0  0  0  0  0  0  0  0  0  0
  132.1273  136.4135  159.8460 H   0  0  0  0  0  0  0  0  0  0  0  0
  127.4637  135.5064  162.0056 H   0  0  0  0  0  0  0  0  0  0  0  0
  126.9626  136.2998  160.4974 H   0  0  0  0  0  0  0  0  0  0  0  0
  124.9371  135.7798  161.6132 H   0  0  0  0  0  0  0  0  0  0  0  0
  1  2  2  0
  2 31  1  0
  2  3  1  0
  3  4  1  0
  3 32  1  0
  3 33  1  0
  4  5  1  0
  4 34  1  0
  4 35  1  0
  5  6  1  6
  5  7  1  0
  5 30  1  0
  7 36  1  0
  8  7  1  0
  8  9  1  0
  8 16  2  0
  9 10  1  0
  9 37  1  0
 10 15  1  0
 10 11  1  0
 10 38  1  0
 11 12  1  0
 11 39  1  0
 11 40  1  0
 12 13  1  0
 12 14  1  0
 12 15  1  0
 15 41  1  0
 15 42  1  0
 16 17  1  0
 16 18  1  0
 18 19  1  1
 18 29  1  0
 18 20  1  0
 20 21  1  0
 20 43  1  0
 20 44  1  0
 21 22  1  0
 22 28  2  0
 22 23  1  0
 23 24  2  0
 23 45  1  0
 24 25  1  0
 24 26  1  0
 26 27  2  0
 26 46  1  0
 27 28  1  0
 27 47  1  0
 28 29  1  0
 29 48  1  0
 29 49  1  0
 30 31  1  0
 30 50  1  0
 30 51  1  0
 31 52  1  0
M  CHG  1  16   1
M  END
>  <DOCK_score>  (1) 
-46.059464

>  <SMILES>  (1) 
O=C1CC[C@H](NC(NC2CC(F)(F)C2)=[NH+][C@H]2COc3cc(Cl)ccc3C2)CN1

$$$$
