Oc1ccc(-c2c[nH]c(N[C@H](c3ccc(F)cc3)c3cccs3)[nH+]2)cc1
     RDKit          3D

 43 46  0  0  1  0  0  0  0  0999 V2000
  131.8328  129.4506  151.9156 O   0  0  0  0  0  0  0  0  0  0  0  0
  131.4469  130.1408  153.0209 C   0  0  0  0  0  0  0  0  0  0  0  0
  130.6565  131.2740  152.8889 C   0  0  0  0  0  0  0  0  0  0  0  0
  130.2628  131.9765  154.0089 C   0  0  0  0  0  0  0  0  0  0  0  0
  130.6595  131.5470  155.2741 C   0  0  0  0  0  0  0  0  0  0  0  0
  130.2382  132.3003  156.4808 C   0  0  0  0  0  0  0  0  0  0  0  0
  129.5044  131.8114  157.5108 C   0  0  0  0  0  0  0  0  0  0  0  0
  129.3397  132.8407  158.4069 N   0  0  0  0  0  0  0  0  0  0  0  0
  128.8546  132.8001  159.2459 H   0  0  0  0  0  0  0  0  0  0  0  0
  129.9835  133.9270  157.8997 C   0  0  0  0  0  0  0  0  0  0  0  0
  130.0574  135.1730  158.4987 N   0  0  0  0  0  0  0  0  0  0  0  0
  128.9678  135.6369  159.3611 C   0  0  2  0  0  0  0  0  0  0  0  0
  128.8489  134.9489  160.1982 H   0  0  0  0  0  0  0  0  0  0  0  0
  127.6874  135.6895  158.5684 C   0  0  0  0  0  0  0  0  0  0  0  0
  126.4755  135.4773  159.1988 C   0  0  0  0  0  0  0  0  0  0  0  0
  125.3002  135.5307  158.4737 C   0  0  0  0  0  0  0  0  0  0  0  0
  125.3374  135.7861  157.1135 C   0  0  0  0  0  0  0  0  0  0  0  0
  124.1895  135.8331  156.4027 F   0  0  0  0  0  0  0  0  0  0  0  0
  126.5522  135.9929  156.4821 C   0  0  0  0  0  0  0  0  0  0  0  0
  127.7259  135.9441  157.2101 C   0  0  0  0  0  0  0  0  0  0  0  0
  129.2918  137.0127  159.8839 C   0  0  0  0  0  0  0  0  0  0  0  0
  128.8880  137.5048  161.0560 C   0  0  0  0  0  0  0  0  0  0  0  0
  129.3124  138.7947  161.3244 C   0  0  0  0  0  0  0  0  0  0  0  0
  130.0534  139.3534  160.3663 C   0  0  0  0  0  0  0  0  0  0  0  0
  130.2541  138.2180  159.0382 S   0  0  0  0  0  0  0  0  0  0  0  0
  130.5220  133.5992  156.7505 N   0  0  0  0  0  0  0  0  0  0  0  0
  131.0376  134.1920  156.1816 H   0  0  0  0  0  0  0  0  0  0  0  0
  131.4575  130.4115  155.4031 C   0  0  0  0  0  0  0  0  0  0  0  0
  131.8434  129.7104  154.2796 C   0  0  0  0  0  0  0  0  0  0  0  0
  131.5089  129.8250  151.0851 H   0  0  0  0  0  0  0  0  0  0  0  0
  130.3498  131.6067  151.9083 H   0  0  0  0  0  0  0  0  0  0  0  0
  129.6475  132.8580  153.9055 H   0  0  0  0  0  0  0  0  0  0  0  0
  129.1191  130.8071  157.6066 H   0  0  0  0  0  0  0  0  0  0  0  0
  130.8306  135.7387  158.3474 H   0  0  0  0  0  0  0  0  0  0  0  0
  126.4468  135.2738  160.2591 H   0  0  0  0  0  0  0  0  0  0  0  0
  124.3530  135.3697  158.9674 H   0  0  0  0  0  0  0  0  0  0  0  0
  126.5826  136.1918  155.4210 H   0  0  0  0  0  0  0  0  0  0  0  0
  128.6735  136.1052  156.7178 H   0  0  0  0  0  0  0  0  0  0  0  0
  128.2782  136.9386  161.7446 H   0  0  0  0  0  0  0  0  0  0  0  0
  129.0595  139.3110  162.2387 H   0  0  0  0  0  0  0  0  0  0  0  0
  130.4666  140.3506  160.4008 H   0  0  0  0  0  0  0  0  0  0  0  0
  131.7702  130.0787  156.3819 H   0  0  0  0  0  0  0  0  0  0  0  0
  132.4582  128.8280  154.3791 H   0  0  0  0  0  0  0  0  0  0  0  0
  1  2  1  0
  1 30  1  0
  2 29  2  0
  2  3  1  0
  3  4  2  0
  3 31  1  0
  4  5  1  0
  4 32  1  0
  5  6  1  0
  5 28  2  0
  6 26  1  0
  6  7  2  0
  7  8  1  0
  7 33  1  0
  8  9  1  0
  8 10  1  0
 10 11  1  0
 10 26  2  0
 11 12  1  0
 11 34  1  0
 12 13  1  1
 12 14  1  0
 12 21  1  0
 14 20  1  0
 14 15  2  0
 15 16  1  0
 15 35  1  0
 16 17  2  0
 16 36  1  0
 17 18  1  0
 17 19  1  0
 19 20  2  0
 19 37  1  0
 20 38  1  0
 21 25  1  0
 21 22  2  0
 22 23  1  0
 22 39  1  0
 23 24  2  0
 23 40  1  0
 24 25  1  0
 24 41  1  0
 26 27  1  0
 28 29  1  0
 28 42  1  0
 29 43  1  0
M  CHG  1  26   1
M  END
>  <DOCK_score>  (1) 
-59.328583

>  <SMILES>  (1) 
Oc1ccc(-c2c[nH]c(N[C@H](c3ccc(F)cc3)c3cccs3)[nH+]2)cc1

$$$$
