CCc1ccc(-c2c[nH]c(N[C@@H]3C=C(Nc4nc(-c5ccc(N)cc5)c[nH]4)CCC3)[nH+]2)cc1
     RDKit          3D

 63 67  0  0  1  0  0  0  0  0999 V2000
  129.6711  128.7819  151.4975 C   0  0  0  0  0  0  0  0  0  0  0  0
  130.8499  129.7427  151.6640 C   0  0  0  0  0  0  0  0  0  0  0  0
  130.7646  130.4131  153.0109 C   0  0  0  0  0  0  0  0  0  0  0  0
  131.3789  129.8367  154.1076 C   0  0  0  0  0  0  0  0  0  0  0  0
  131.3050  130.4467  155.3433 C   0  0  0  0  0  0  0  0  0  0  0  0
  130.6094  131.6461  155.4850 C   0  0  0  0  0  0  0  0  0  0  0  0
  130.5264  132.3065  156.8105 C   0  0  0  0  0  0  0  0  0  0  0  0
  129.9814  131.7765  157.9335 C   0  0  0  0  0  0  0  0  0  0  0  0
  130.1147  132.7185  158.9242 N   0  0  0  0  0  0  0  0  0  0  0  0
  129.8188  132.6310  159.8439 H   0  0  0  0  0  0  0  0  0  0  0  0
  130.7381  133.7977  158.3773 C   0  0  0  0  0  0  0  0  0  0  0  0
  131.0601  134.9669  159.0450 N   0  0  0  0  0  0  0  0  0  0  0  0
  131.3578  134.9334  160.4791 C   0  0  2  0  0  0  0  0  0  0  0  0
  130.4919  134.5502  161.0190 H   0  0  0  0  0  0  0  0  0  0  0  0
  131.6666  136.3226  160.9556 C   0  0  0  0  0  0  0  0  0  0  0  0
  132.6421  136.6126  161.7725 C   0  0  0  0  0  0  0  0  0  0  0  0
  132.8118  137.9422  162.1418 N   0  0  0  0  0  0  0  0  0  0  0  0
  133.8345  138.2957  163.0069 C   0  0  0  0  0  0  0  0  0  0  0  0
  134.7024  137.4710  163.5410 N   0  0  0  0  0  0  0  0  0  0  0  0
  135.5527  138.1711  164.3318 C   0  0  0  0  0  0  0  0  0  0  0  0
  136.6800  137.6081  165.1149 C   0  0  0  0  0  0  0  0  0  0  0  0
  137.0782  138.2187  166.3031 C   0  0  0  0  0  0  0  0  0  0  0  0
  138.1231  137.6909  167.0317 C   0  0  0  0  0  0  0  0  0  0  0  0
  138.7858  136.5569  166.5772 C   0  0  0  0  0  0  0  0  0  0  0  0
  139.8476  136.0270  167.3143 N   0  0  0  0  0  0  0  0  0  0  0  0
  138.3939  135.9496  165.3900 C   0  0  0  0  0  0  0  0  0  0  0  0
  137.3464  136.4711  164.6605 C   0  0  0  0  0  0  0  0  0  0  0  0
  135.1941  139.4779  164.2756 C   0  0  0  0  0  0  0  0  0  0  0  0
  134.1043  139.5567  163.4423 N   0  0  0  0  0  0  0  0  0  0  0  0
  133.6195  140.3627  163.2048 H   0  0  0  0  0  0  0  0  0  0  0  0
  133.5956  135.5979  162.3325 C   0  0  0  0  0  0  0  0  0  0  0  0
  133.0140  134.1891  162.1773 C   0  0  0  0  0  0  0  0  0  0  0  0
  132.5561  134.0138  160.7240 C   0  0  0  0  0  0  0  0  0  0  0  0
  130.9781  133.5496  157.1129 N   0  0  0  0  0  0  0  0  0  0  0  0
  131.4110  134.1571  156.4929 H   0  0  0  0  0  0  0  0  0  0  0  0
  129.9874  132.2198  154.3775 C   0  0  0  0  0  0  0  0  0  0  0  0
  130.0729  131.6039  153.1453 C   0  0  0  0  0  0  0  0  0  0  0  0
  129.7050  128.0264  152.2823 H   0  0  0  0  0  0  0  0  0  0  0  0
  128.7361  129.3378  151.5683 H   0  0  0  0  0  0  0  0  0  0  0  0
  129.7324  128.2969  150.5233 H   0  0  0  0  0  0  0  0  0  0  0  0
  130.8158  130.4988  150.8789 H   0  0  0  0  0  0  0  0  0  0  0  0
  131.7846  129.1874  151.5928 H   0  0  0  0  0  0  0  0  0  0  0  0
  131.9177  128.9072  153.9967 H   0  0  0  0  0  0  0  0  0  0  0  0
  131.7854  129.9956  156.1989 H   0  0  0  0  0  0  0  0  0  0  0  0
  129.5295  130.8004  158.0303 H   0  0  0  0  0  0  0  0  0  0  0  0
  131.0886  135.8084  158.5632 H   0  0  0  0  0  0  0  0  0  0  0  0
  131.0438  137.1309  160.6017 H   0  0  0  0  0  0  0  0  0  0  0  0
  132.2140  138.6223  161.7939 H   0  0  0  0  0  0  0  0  0  0  0  0
  136.5663  139.1023  166.6548 H   0  0  0  0  0  0  0  0  0  0  0  0
  138.4296  138.1614  167.9543 H   0  0  0  0  0  0  0  0  0  0  0  0
  140.3107  135.2359  166.9975 H   0  0  0  0  0  0  0  0  0  0  0  0
  140.1217  136.4504  168.1429 H   0  0  0  0  0  0  0  0  0  0  0  0
  138.9104  135.0687  165.0385 H   0  0  0  0  0  0  0  0  0  0  0  0
  137.0422  135.9989  163.7382 H   0  0  0  0  0  0  0  0  0  0  0  0
  135.6721  140.2990  164.7892 H   0  0  0  0  0  0  0  0  0  0  0  0
  134.5447  135.6614  161.8001 H   0  0  0  0  0  0  0  0  0  0  0  0
  133.7622  135.8034  163.3898 H   0  0  0  0  0  0  0  0  0  0  0  0
  132.1632  134.0642  162.8471 H   0  0  0  0  0  0  0  0  0  0  0  0
  133.7775  133.4477  162.4127 H   0  0  0  0  0  0  0  0  0  0  0  0
  132.2633  132.9777  160.5547 H   0  0  0  0  0  0  0  0  0  0  0  0
  133.3672  134.2807  160.0464 H   0  0  0  0  0  0  0  0  0  0  0  0
  129.4430  133.1467  154.4825 H   0  0  0  0  0  0  0  0  0  0  0  0
  129.5950  132.0499  152.2855 H   0  0  0  0  0  0  0  0  0  0  0  0
  1  2  1  0
  1 38  1  0
  1 39  1  0
  1 40  1  0
  2  3  1  0
  2 41  1  0
  2 42  1  0
  3 37  2  0
  3  4  1  0
  4  5  2  0
  4 43  1  0
  5  6  1  0
  5 44  1  0
  6  7  1  0
  6 36  2  0
  7 34  1  0
  7  8  2  0
  8  9  1  0
  8 45  1  0
  9 10  1  0
  9 11  1  0
 11 12  1  0
 11 34  2  0
 12 13  1  0
 12 46  1  0
 13 14  1  1
 13 33  1  0
 13 15  1  0
 15 16  2  0
 15 47  1  0
 16 17  1  0
 16 31  1  0
 17 18  1  0
 17 48  1  0
 18 29  1  0
 18 19  2  0
 19 20  1  0
 20 21  1  0
 20 28  2  0
 21 27  1  0
 21 22  2  0
 22 23  1  0
 22 49  1  0
 23 24  2  0
 23 50  1  0
 24 25  1  0
 24 26  1  0
 25 51  1  0
 25 52  1  0
 26 27  2  0
 26 53  1  0
 27 54  1  0
 28 29  1  0
 28 55  1  0
 29 30  1  0
 31 32  1  0
 31 56  1  0
 31 57  1  0
 32 33  1  0
 32 58  1  0
 32 59  1  0
 33 60  1  0
 33 61  1  0
 34 35  1  0
 36 37  1  0
 36 62  1  0
 37 63  1  0
M  CHG  1  34   1
M  END
>  <DOCK_score>  (1) 
-58.46294

>  <SMILES>  (1) 
CCc1ccc(-c2c[nH]c(N[C@@H]3C=C(Nc4nc(-c5ccc(N)cc5)c[nH]4)CCC3)[nH+]2)cc1

$$$$
