CCc1ccc(-c2c[nH]c(N[C@H](C3=CCCCCC3)c3ccccc3)[nH+]2)cc1
     RDKit          3D

 58 61  0  0  1  0  0  0  0  0999 V2000
  129.9750  128.6395  151.4286 C   0  0  0  0  0  0  0  0  0  0  0  0
  131.1679  129.5337  151.7724 C   0  0  0  0  0  0  0  0  0  0  0  0
  130.8611  130.3234  153.0187 C   0  0  0  0  0  0  0  0  0  0  0  0
  131.1865  129.8064  154.2592 C   0  0  0  0  0  0  0  0  0  0  0  0
  130.9131  130.5275  155.4038 C   0  0  0  0  0  0  0  0  0  0  0  0
  130.2974  131.7742  155.3083 C   0  0  0  0  0  0  0  0  0  0  0  0
  129.9960  132.5516  156.5351 C   0  0  0  0  0  0  0  0  0  0  0  0
  129.2023  132.1508  157.5590 C   0  0  0  0  0  0  0  0  0  0  0  0
  129.1987  133.1680  158.4823 N   0  0  0  0  0  0  0  0  0  0  0  0
  128.7196  133.1766  159.3257 H   0  0  0  0  0  0  0  0  0  0  0  0
  129.9911  134.1614  157.9952 C   0  0  0  0  0  0  0  0  0  0  0  0
  130.2525  135.3662  158.6250 N   0  0  0  0  0  0  0  0  0  0  0  0
  129.6538  135.6555  159.9304 C   0  0  2  0  0  0  0  0  0  0  0  0
  128.5673  135.6336  159.8446 H   0  0  0  0  0  0  0  0  0  0  0  0
  130.0935  137.0206  160.3932 C   0  0  0  0  0  0  0  0  0  0  0  0
  129.8125  138.0643  159.6795 C   0  0  0  0  0  0  0  0  0  0  0  0
  130.2482  139.4412  160.1328 C   0  0  0  0  0  0  0  0  0  0  0  0
  131.7645  139.5552  159.9606 C   0  0  0  0  0  0  0  0  0  0  0  0
  132.4871  139.0047  161.1776 C   0  0  0  0  0  0  0  0  0  0  0  0
  132.3153  137.5073  161.3618 C   0  0  0  0  0  0  0  0  0  0  0  0
  130.8558  137.1653  161.6931 C   0  0  0  0  0  0  0  0  0  0  0  0
  130.1002  134.6186  160.9287 C   0  0  0  0  0  0  0  0  0  0  0  0
  129.2768  134.2772  161.9854 C   0  0  0  0  0  0  0  0  0  0  0  0
  129.6846  133.3233  162.8989 C   0  0  0  0  0  0  0  0  0  0  0  0
  130.9191  132.7168  162.7605 C   0  0  0  0  0  0  0  0  0  0  0  0
  131.7446  133.0621  161.7067 C   0  0  0  0  0  0  0  0  0  0  0  0
  131.3351  134.0132  160.7910 C   0  0  0  0  0  0  0  0  0  0  0  0
  130.4704  133.7870  156.8342 N   0  0  0  0  0  0  0  0  0  0  0  0
  131.0670  134.3106  156.2767 H   0  0  0  0  0  0  0  0  0  0  0  0
  129.9665  132.2881  154.0557 C   0  0  0  0  0  0  0  0  0  0  0  0
  130.2498  131.5607  152.9176 C   0  0  0  0  0  0  0  0  0  0  0  0
  130.1969  128.0685  150.5271 H   0  0  0  0  0  0  0  0  0  0  0  0
  129.7849  127.9547  152.2549 H   0  0  0  0  0  0  0  0  0  0  0  0
  129.0937  129.2581  151.2592 H   0  0  0  0  0  0  0  0  0  0  0  0
  132.0490  128.9157  151.9413 H   0  0  0  0  0  0  0  0  0  0  0  0
  131.3578  130.2192  150.9456 H   0  0  0  0  0  0  0  0  0  0  0  0
  131.6592  128.8381  154.3324 H   0  0  0  0  0  0  0  0  0  0  0  0
  131.1719  130.1247  156.3719 H   0  0  0  0  0  0  0  0  0  0  0  0
  128.6739  131.2119  157.6340 H   0  0  0  0  0  0  0  0  0  0  0  0
  130.8324  136.0188  158.2020 H   0  0  0  0  0  0  0  0  0  0  0  0
  129.2646  137.9515  158.7556 H   0  0  0  0  0  0  0  0  0  0  0  0
  129.7531  140.1997  159.5265 H   0  0  0  0  0  0  0  0  0  0  0  0
  129.9876  139.5805  161.1820 H   0  0  0  0  0  0  0  0  0  0  0  0
  132.0688  138.9929  159.0779 H   0  0  0  0  0  0  0  0  0  0  0  0
  132.0329  140.6033  159.8278 H   0  0  0  0  0  0  0  0  0  0  0  0
  133.5504  139.2243  161.0805 H   0  0  0  0  0  0  0  0  0  0  0  0
  132.1091  139.5109  162.0659 H   0  0  0  0  0  0  0  0  0  0  0  0
  132.6054  136.9971  160.4433 H   0  0  0  0  0  0  0  0  0  0  0  0
  132.9556  137.1703  162.1771 H   0  0  0  0  0  0  0  0  0  0  0  0
  130.4162  137.9659  162.2879 H   0  0  0  0  0  0  0  0  0  0  0  0
  130.8138  136.2282  162.2481 H   0  0  0  0  0  0  0  0  0  0  0  0
  128.3138  134.7534  162.0954 H   0  0  0  0  0  0  0  0  0  0  0  0
  129.0399  133.0538  163.7224 H   0  0  0  0  0  0  0  0  0  0  0  0
  131.2389  131.9734  163.4757 H   0  0  0  0  0  0  0  0  0  0  0  0
  132.7091  132.5884  161.5988 H   0  0  0  0  0  0  0  0  0  0  0  0
  131.9801  134.2829  159.9677 H   0  0  0  0  0  0  0  0  0  0  0  0
  129.4892  133.2536  153.9758 H   0  0  0  0  0  0  0  0  0  0  0  0
  129.9936  131.9578  151.9464 H   0  0  0  0  0  0  0  0  0  0  0  0
  1  2  1  0
  1 32  1  0
  1 33  1  0
  1 34  1  0
  2  3  1  0
  2 35  1  0
  2 36  1  0
  3 31  2  0
  3  4  1  0
  4  5  2  0
  4 37  1  0
  5  6  1  0
  5 38  1  0
  6  7  1  0
  6 30  2  0
  7 28  1  0
  7  8  2  0
  8  9  1  0
  8 39  1  0
  9 10  1  0
  9 11  1  0
 11 12  1  0
 11 28  2  0
 12 13  1  0
 12 40  1  0
 13 14  1  6
 13 15  1  0
 13 22  1  0
 15 21  1  0
 15 16  2  0
 16 17  1  0
 16 41  1  0
 17 18  1  0
 17 42  1  0
 17 43  1  0
 18 19  1  0
 18 44  1  0
 18 45  1  0
 19 20  1  0
 19 46  1  0
 19 47  1  0
 20 21  1  0
 20 48  1  0
 20 49  1  0
 21 50  1  0
 21 51  1  0
 22 27  1  0
 22 23  2  0
 23 24  1  0
 23 52  1  0
 24 25  2  0
 24 53  1  0
 25 26  1  0
 25 54  1  0
 26 27  2  0
 26 55  1  0
 27 56  1  0
 28 29  1  0
 30 31  1  0
 30 57  1  0
 31 58  1  0
M  CHG  1  28   1
M  END
>  <DOCK_score>  (1) 
-56.140656

>  <SMILES>  (1) 
CCc1ccc(-c2c[nH]c(N[C@H](C3=CCCCCC3)c3ccccc3)[nH+]2)cc1

$$$$
