Clc1ccc([C@@H](c2ccccc2Cl)N2CC=C(C[NH2+]C3CCCC3)CC2)cc1
     RDKit          3D

 57 60  0  0  1  0  0  0  0  0999 V2000
  131.0978  130.8278  153.0186 Cl  0  0  0  0  0  0  0  0  0  0  0  0
  130.7307  131.3109  154.6451 C   0  0  0  0  0  0  0  0  0  0  0  0
  130.1981  132.5639  154.8913 C   0  0  0  0  0  0  0  0  0  0  0  0
  129.9064  132.9481  156.1865 C   0  0  0  0  0  0  0  0  0  0  0  0
  130.1470  132.0809  157.2359 C   0  0  0  0  0  0  0  0  0  0  0  0
  129.8295  132.5010  158.6479 C   0  0  1  0  0  0  0  0  0  0  0  0
  129.9355  133.5820  158.7380 H   0  0  0  0  0  0  0  0  0  0  0  0
  128.4147  132.1051  158.9838 C   0  0  0  0  0  0  0  0  0  0  0  0
  128.0397  130.7754  158.9387 C   0  0  0  0  0  0  0  0  0  0  0  0
  126.7433  130.4118  159.2514 C   0  0  0  0  0  0  0  0  0  0  0  0
  125.8182  131.3788  159.5991 C   0  0  0  0  0  0  0  0  0  0  0  0
  126.1906  132.7090  159.6393 C   0  0  0  0  0  0  0  0  0  0  0  0
  127.4896  133.0731  159.3316 C   0  0  0  0  0  0  0  0  0  0  0  0
  127.9583  134.7439  159.3824 Cl  0  0  0  0  0  0  0  0  0  0  0  0
  130.7564  131.8392  159.5757 N   0  0  0  0  0  0  0  0  0  0  0  0
  130.4327  132.1711  160.9691 C   0  0  0  0  0  0  0  0  0  0  0  0
  130.8159  133.5915  161.2681 C   0  0  0  0  0  0  0  0  0  0  0  0
  131.6281  134.2817  160.5267 C   0  0  0  0  0  0  0  0  0  0  0  0
  131.9455  135.6983  160.9314 C   0  0  0  0  0  0  0  0  0  0  0  0
  132.8763  136.2881  159.9601 N   0  0  0  0  0  0  0  0  0  0  0  0
  133.7271  135.7461  159.9376 H   0  0  0  0  0  0  0  0  0  0  0  0
  132.4524  136.2868  159.0444 H   0  0  0  0  0  0  0  0  0  0  0  0
  133.1856  137.6689  160.3545 C   0  0  0  0  0  0  0  0  0  0  0  0
  131.9037  138.5266  160.3256 C   0  0  0  0  0  0  0  0  0  0  0  0
  132.3813  139.9046  159.8018 C   0  0  0  0  0  0  0  0  0  0  0  0
  133.4374  139.5189  158.7366 C   0  0  0  0  0  0  0  0  0  0  0  0
  134.1606  138.2996  159.3450 C   0  0  0  0  0  0  0  0  0  0  0  0
  132.2663  133.7298  159.2829 C   0  0  0  0  0  0  0  0  0  0  0  0
  132.1515  132.2032  159.2771 C   0  0  0  0  0  0  0  0  0  0  0  0
  130.6838  130.8309  156.9910 C   0  0  0  0  0  0  0  0  0  0  0  0
  130.9707  130.4433  155.6957 C   0  0  0  0  0  0  0  0  0  0  0  0
  130.0109  133.2417  154.0717 H   0  0  0  0  0  0  0  0  0  0  0  0
  129.4907  133.9263  156.3788 H   0  0  0  0  0  0  0  0  0  0  0  0
  128.7606  130.0202  158.6629 H   0  0  0  0  0  0  0  0  0  0  0  0
  126.4518  129.3723  159.2203 H   0  0  0  0  0  0  0  0  0  0  0  0
  124.8044  131.0944  159.8396 H   0  0  0  0  0  0  0  0  0  0  0  0
  125.4679  133.4641  159.9106 H   0  0  0  0  0  0  0  0  0  0  0  0
  129.3624  132.0440  161.1310 H   0  0  0  0  0  0  0  0  0  0  0  0
  130.9780  131.5026  161.6353 H   0  0  0  0  0  0  0  0  0  0  0  0
  130.3942  134.0633  162.1434 H   0  0  0  0  0  0  0  0  0  0  0  0
  131.0264  136.2837  160.9557 H   0  0  0  0  0  0  0  0  0  0  0  0
  132.4033  135.6996  161.9205 H   0  0  0  0  0  0  0  0  0  0  0  0
  133.6217  137.6828  161.3534 H   0  0  0  0  0  0  0  0  0  0  0  0
  131.1702  138.0934  159.6455 H   0  0  0  0  0  0  0  0  0  0  0  0
  131.4861  138.6223  161.3279 H   0  0  0  0  0  0  0  0  0  0  0  0
  132.8362  140.4857  160.6041 H   0  0  0  0  0  0  0  0  0  0  0  0
  131.5575  140.4551  159.3474 H   0  0  0  0  0  0  0  0  0  0  0  0
  134.1382  140.3390  158.5796 H   0  0  0  0  0  0  0  0  0  0  0  0
  132.9540  139.2466  157.7983 H   0  0  0  0  0  0  0  0  0  0  0  0
  135.0696  138.6203  159.8540 H   0  0  0  0  0  0  0  0  0  0  0  0
  134.4050  137.5809  158.5628 H   0  0  0  0  0  0  0  0  0  0  0  0
  133.3181  134.0145  159.2579 H   0  0  0  0  0  0  0  0  0  0  0  0
  131.7610  134.1346  158.4059 H   0  0  0  0  0  0  0  0  0  0  0  0
  132.8104  131.7836  160.0373 H   0  0  0  0  0  0  0  0  0  0  0  0
  132.4295  131.8156  158.2970 H   0  0  0  0  0  0  0  0  0  0  0  0
  130.8754  130.1554  157.8117 H   0  0  0  0  0  0  0  0  0  0  0  0
  131.3863  129.4650  155.5041 H   0  0  0  0  0  0  0  0  0  0  0  0
  1  2  1  0
  2 31  2  0
  2  3  1  0
  3  4  2  0
  3 32  1  0
  4  5  1  0
  4 33  1  0
  5  6  1  0
  5 30  2  0
  6  7  1  6
  6  8  1  0
  6 15  1  0
  8 13  1  0
  8  9  2  0
  9 10  1  0
  9 34  1  0
 10 11  2  0
 10 35  1  0
 11 12  1  0
 11 36  1  0
 12 13  2  0
 12 37  1  0
 13 14  1  0
 15 29  1  0
 15 16  1  0
 16 17  1  0
 16 38  1  0
 16 39  1  0
 17 18  2  0
 17 40  1  0
 18 19  1  0
 18 28  1  0
 19 20  1  0
 19 41  1  0
 19 42  1  0
 20 21  1  0
 20 22  1  0
 20 23  1  0
 23 27  1  0
 23 24  1  0
 23 43  1  0
 24 25  1  0
 24 44  1  0
 24 45  1  0
 25 26  1  0
 25 46  1  0
 25 47  1  0
 26 27  1  0
 26 48  1  0
 26 49  1  0
 27 50  1  0
 27 51  1  0
 28 29  1  0
 28 52  1  0
 28 53  1  0
 29 54  1  0
 29 55  1  0
 30 31  1  0
 30 56  1  0
 31 57  1  0
M  CHG  1  20   1
M  END
>  <DOCK_score>  (1) 
-58.186497

>  <SMILES>  (1) 
Clc1ccc([C@@H](c2ccccc2Cl)N2CC=C(C[NH2+]C3CCCC3)CC2)cc1

$$$$
