CC=Cc1c[nH]c(NC(c2ccccc2)c2ccccc2)[nH+]1
     RDKit          3D

 42 44  0  0  1  0  0  0  0  0999 V2000
  131.3984  131.5653  153.3219 C   0  0  0  0  0  0  0  0  0  0  0  0
  130.9496  132.3123  154.5515 C   0  0  0  0  0  0  0  0  0  0  0  0
  130.7966  131.6673  155.7004 C   0  0  0  0  0  0  0  0  0  0  0  0
  130.3568  132.3997  156.9057 C   0  0  0  0  0  0  0  0  0  0  0  0
  129.6321  131.8863  157.9337 C   0  0  0  0  0  0  0  0  0  0  0  0
  129.4518  132.9021  158.8397 N   0  0  0  0  0  0  0  0  0  0  0  0
  128.9747  132.8422  159.6822 H   0  0  0  0  0  0  0  0  0  0  0  0
  130.0627  134.0096  158.3367 C   0  0  0  0  0  0  0  0  0  0  0  0
  130.1084  135.2516  158.9461 N   0  0  0  0  0  0  0  0  0  0  0  0
  129.0139  135.6787  159.8212 C   0  0  0  0  0  0  0  0  0  0  0  0
  129.3055  137.0580  160.3537 C   0  0  0  0  0  0  0  0  0  0  0  0
  128.8237  137.4367  161.5928 C   0  0  0  0  0  0  0  0  0  0  0  0
  129.0951  138.7002  162.0833 C   0  0  0  0  0  0  0  0  0  0  0  0
  129.8398  139.5888  161.3304 C   0  0  0  0  0  0  0  0  0  0  0  0
  130.3172  139.2119  160.0889 C   0  0  0  0  0  0  0  0  0  0  0  0
  130.0501  137.9465  159.6007 C   0  0  0  0  0  0  0  0  0  0  0  0
  127.7261  135.7042  159.0390 C   0  0  0  0  0  0  0  0  0  0  0  0
  126.5251  135.4544  159.6765 C   0  0  0  0  0  0  0  0  0  0  0  0
  125.3433  135.4825  158.9599 C   0  0  0  0  0  0  0  0  0  0  0  0
  125.3634  135.7501  157.6038 C   0  0  0  0  0  0  0  0  0  0  0  0
  126.5649  135.9947  156.9654 C   0  0  0  0  0  0  0  0  0  0  0  0
  127.7461  135.9717  157.6829 C   0  0  0  0  0  0  0  0  0  0  0  0
  130.6052  133.7056  157.1831 N   0  0  0  0  0  0  0  0  0  0  0  0
  131.1048  134.3156  156.6183 H   0  0  0  0  0  0  0  0  0  0  0  0
  131.4666  132.2562  152.4818 H   0  0  0  0  0  0  0  0  0  0  0  0
  132.3754  131.1181  153.5050 H   0  0  0  0  0  0  0  0  0  0  0  0
  130.6775  130.7812  153.0899 H   0  0  0  0  0  0  0  0  0  0  0  0
  130.7525  133.3728  154.4971 H   0  0  0  0  0  0  0  0  0  0  0  0
  130.9938  130.6069  155.7548 H   0  0  0  0  0  0  0  0  0  0  0  0
  129.2711  130.8724  158.0233 H   0  0  0  0  0  0  0  0  0  0  0  0
  130.8632  135.8407  158.7906 H   0  0  0  0  0  0  0  0  0  0  0  0
  128.9200  134.9805  160.6530 H   0  0  0  0  0  0  0  0  0  0  0  0
  128.2383  136.7441  162.1792 H   0  0  0  0  0  0  0  0  0  0  0  0
  128.7218  138.9948  163.0530 H   0  0  0  0  0  0  0  0  0  0  0  0
  130.0482  140.5774  161.7116 H   0  0  0  0  0  0  0  0  0  0  0  0
  130.8985  139.9061  159.5004 H   0  0  0  0  0  0  0  0  0  0  0  0
  130.4229  137.6522  158.6307 H   0  0  0  0  0  0  0  0  0  0  0  0
  126.5099  135.2410  160.7351 H   0  0  0  0  0  0  0  0  0  0  0  0
  124.4048  135.2910  159.4587 H   0  0  0  0  0  0  0  0  0  0  0  0
  124.4406  135.7677  157.0431 H   0  0  0  0  0  0  0  0  0  0  0  0
  126.5805  136.2034  155.9059 H   0  0  0  0  0  0  0  0  0  0  0  0
  128.6847  136.1626  157.1840 H   0  0  0  0  0  0  0  0  0  0  0  0
  1  2  1  0
  1 25  1  0
  1 26  1  0
  1 27  1  0
  2  3  2  0
  2 28  1  0
  3  4  1  0
  3 29  1  0
  4 23  1  0
  4  5  2  0
  5  6  1  0
  5 30  1  0
  6  7  1  0
  6  8  1  0
  8  9  1  0
  8 23  2  0
  9 10  1  0
  9 31  1  0
 10 11  1  0
 10 17  1  0
 10 32  1  0
 11 16  1  0
 11 12  2  0
 12 13  1  0
 12 33  1  0
 13 14  2  0
 13 34  1  0
 14 15  1  0
 14 35  1  0
 15 16  2  0
 15 36  1  0
 16 37  1  0
 17 22  1  0
 17 18  2  0
 18 19  1  0
 18 38  1  0
 19 20  2  0
 19 39  1  0
 20 21  1  0
 20 40  1  0
 21 22  2  0
 21 41  1  0
 22 42  1  0
 23 24  1  0
M  CHG  1  23   1
M  END
>  <DOCK_score>  (1) 
-56.204105

>  <SMILES>  (1) 
CC=Cc1c[nH]c(NC(c2ccccc2)c2ccccc2)[nH+]1

$$$$
