CCc1ccc(-c2c[nH]c(N[C@@H](c3ccccc3C)C3CCCC3)[nH+]2)cc1
     RDKit          3D

 57 60  0  0  1  0  0  0  0  0999 V2000
  136.6789  140.2644  162.8345 C   0  0  0  0  0  0  0  0  0  0  0  0
  135.4406  140.6427  162.0195 C   0  0  0  0  0  0  0  0  0  0  0  0
  134.6577  139.3984  161.6884 C   0  0  0  0  0  0  0  0  0  0  0  0
  133.6708  138.9554  162.5508 C   0  0  0  0  0  0  0  0  0  0  0  0
  132.9469  137.8197  162.2500 C   0  0  0  0  0  0  0  0  0  0  0  0
  133.2191  137.1123  161.0805 C   0  0  0  0  0  0  0  0  0  0  0  0
  132.4481  135.8877  160.7544 C   0  0  0  0  0  0  0  0  0  0  0  0
  131.8956  135.0308  161.6484 C   0  0  0  0  0  0  0  0  0  0  0  0
  131.2778  134.0413  160.9230 N   0  0  0  0  0  0  0  0  0  0  0  0
  130.7936  133.2820  161.2832 H   0  0  0  0  0  0  0  0  0  0  0  0
  131.4710  134.3228  159.6056 C   0  0  0  0  0  0  0  0  0  0  0  0
  131.0054  133.5677  158.5429 N   0  0  0  0  0  0  0  0  0  0  0  0
  129.7662  132.7981  158.6786 C   0  0  1  0  0  0  0  0  0  0  0  0
  129.7263  132.3452  159.6694 H   0  0  0  0  0  0  0  0  0  0  0  0
  128.5834  133.7141  158.4969 C   0  0  0  0  0  0  0  0  0  0  0  0
  128.6879  134.8240  157.6792 C   0  0  0  0  0  0  0  0  0  0  0  0
  127.6017  135.6615  157.5089 C   0  0  0  0  0  0  0  0  0  0  0  0
  126.4138  135.3951  158.1642 C   0  0  0  0  0  0  0  0  0  0  0  0
  126.3111  134.2883  158.9857 C   0  0  0  0  0  0  0  0  0  0  0  0
  127.3960  133.4477  159.1521 C   0  0  0  0  0  0  0  0  0  0  0  0
  127.2840  132.2412  160.0482 C   0  0  0  0  0  0  0  0  0  0  0  0
  129.7289  131.6997  157.6141 C   0  0  0  0  0  0  0  0  0  0  0  0
  130.9722  130.7957  157.7438 C   0  0  0  0  0  0  0  0  0  0  0  0
  131.3465  130.4526  156.2804 C   0  0  0  0  0  0  0  0  0  0  0  0
  131.0599  131.7792  155.5343 C   0  0  0  0  0  0  0  0  0  0  0  0
  129.7847  132.3251  156.2093 C   0  0  0  0  0  0  0  0  0  0  0  0
  132.1658  135.4301  159.5087 N   0  0  0  0  0  0  0  0  0  0  0  0
  132.4369  135.8533  158.6792 H   0  0  0  0  0  0  0  0  0  0  0  0
  134.2184  137.5600  160.2182 C   0  0  0  0  0  0  0  0  0  0  0  0
  134.9323  138.7002  160.5262 C   0  0  0  0  0  0  0  0  0  0  0  0
  137.2451  141.1644  163.0739 H   0  0  0  0  0  0  0  0  0  0  0  0
  136.3703  139.7731  163.7572 H   0  0  0  0  0  0  0  0  0  0  0  0
  137.3035  139.5862  162.2529 H   0  0  0  0  0  0  0  0  0  0  0  0
  134.8161  141.3210  162.6009 H   0  0  0  0  0  0  0  0  0  0  0  0
  135.7491  141.1341  161.0966 H   0  0  0  0  0  0  0  0  0  0  0  0
  133.4639  139.5018  163.4592 H   0  0  0  0  0  0  0  0  0  0  0  0
  132.1734  137.4774  162.9217 H   0  0  0  0  0  0  0  0  0  0  0  0
  131.9343  135.1107  162.7248 H   0  0  0  0  0  0  0  0  0  0  0  0
  131.4995  133.5480  157.7084 H   0  0  0  0  0  0  0  0  0  0  0  0
  129.6172  135.0346  157.1709 H   0  0  0  0  0  0  0  0  0  0  0  0
  127.6822  136.5266  156.8671 H   0  0  0  0  0  0  0  0  0  0  0  0
  125.5664  136.0519  158.0346 H   0  0  0  0  0  0  0  0  0  0  0  0
  125.3833  134.0804  159.4980 H   0  0  0  0  0  0  0  0  0  0  0  0
  127.5053  132.5300  161.0757 H   0  0  0  0  0  0  0  0  0  0  0  0
  126.2719  131.8406  159.9933 H   0  0  0  0  0  0  0  0  0  0  0  0
  127.9940  131.4805  159.7238 H   0  0  0  0  0  0  0  0  0  0  0  0
  128.8214  131.1056  157.7226 H   0  0  0  0  0  0  0  0  0  0  0  0
  131.7861  131.3338  158.2296 H   0  0  0  0  0  0  0  0  0  0  0  0
  130.7286  129.8892  158.2977 H   0  0  0  0  0  0  0  0  0  0  0  0
  130.7156  129.6503  155.8982 H   0  0  0  0  0  0  0  0  0  0  0  0
  132.4008  130.1862  156.2038 H   0  0  0  0  0  0  0  0  0  0  0  0
  130.8803  131.5905  154.4758 H   0  0  0  0  0  0  0  0  0  0  0  0
  131.8874  132.4773  155.6613 H   0  0  0  0  0  0  0  0  0  0  0  0
  128.9048  132.0338  155.6357 H   0  0  0  0  0  0  0  0  0  0  0  0
  129.8375  133.4111  156.2859 H   0  0  0  0  0  0  0  0  0  0  0  0
  134.4340  137.0155  159.3106 H   0  0  0  0  0  0  0  0  0  0  0  0
  135.7070  139.0480  159.8590 H   0  0  0  0  0  0  0  0  0  0  0  0
  1  2  1  0
  1 31  1  0
  1 32  1  0
  1 33  1  0
  2  3  1  0
  2 34  1  0
  2 35  1  0
  3 30  2  0
  3  4  1  0
  4  5  2  0
  4 36  1  0
  5  6  1  0
  5 37  1  0
  6  7  1  0
  6 29  2  0
  7 27  1  0
  7  8  2  0
  8  9  1  0
  8 38  1  0
  9 10  1  0
  9 11  1  0
 11 12  1  0
 11 27  2  0
 12 13  1  0
 12 39  1  0
 13 14  1  1
 13 15  1  0
 13 22  1  0
 15 20  1  0
 15 16  2  0
 16 17  1  0
 16 40  1  0
 17 18  2  0
 17 41  1  0
 18 19  1  0
 18 42  1  0
 19 20  2  0
 19 43  1  0
 20 21  1  0
 21 44  1  0
 21 45  1  0
 21 46  1  0
 22 26  1  0
 22 23  1  0
 22 47  1  0
 23 24  1  0
 23 48  1  0
 23 49  1  0
 24 25  1  0
 24 50  1  0
 24 51  1  0
 25 26  1  0
 25 52  1  0
 25 53  1  0
 26 54  1  0
 26 55  1  0
 27 28  1  0
 29 30  1  0
 29 56  1  0
 30 57  1  0
M  CHG  1  27   1
M  END
>  <DOCK_score>  (1) 
-56.343102

>  <SMILES>  (1) 
CCc1ccc(-c2c[nH]c(N[C@@H](c3ccccc3C)C3CCCC3)[nH+]2)cc1

$$$$
