CCC1CC(Nc2ccc(-c3n[nH]cc3C[NH2+]CC3CC4C[C@@H]4C3)o2)C1
     RDKit          3D

 57 61  0  0  1  0  0  0  0  0999 V2000
  127.0641  135.6694  167.4629 C   0  0  0  0  0  0  0  0  0  0  0  0
  126.3651  136.7331  166.6138 C   0  0  0  0  0  0  0  0  0  0  0  0
  127.1666  136.9704  165.3324 C   0  0  2  0  0  0  0  0  0  0  0  0
  126.3337  137.5693  164.1867 C   0  0  0  0  0  0  0  0  0  0  0  0
  127.1002  136.6280  163.2426 C   0  0  2  0  0  0  0  0  0  0  0  0
  126.2605  136.0293  162.2020 N   0  0  0  0  0  0  0  0  0  0  0  0
  126.8187  135.1562  161.2755 C   0  0  0  0  0  0  0  0  0  0  0  0
  126.1745  134.1302  160.6655 C   0  0  0  0  0  0  0  0  0  0  0  0
  127.1082  133.5061  159.8148 C   0  0  0  0  0  0  0  0  0  0  0  0
  128.2755  134.1907  159.9420 C   0  0  0  0  0  0  0  0  0  0  0  0
  129.5360  133.8914  159.2318 C   0  0  0  0  0  0  0  0  0  0  0  0
  129.7279  132.9125  158.3697 N   0  0  0  0  0  0  0  0  0  0  0  0
  131.0547  132.9785  157.9254 N   0  0  0  0  0  0  0  0  0  0  0  0
  131.4702  132.3809  157.2842 H   0  0  0  0  0  0  0  0  0  0  0  0
  131.6569  134.0145  158.5483 C   0  0  0  0  0  0  0  0  0  0  0  0
  130.7500  134.5988  159.3604 C   0  0  0  0  0  0  0  0  0  0  0  0
  130.9917  135.7935  160.2466 C   0  0  0  0  0  0  0  0  0  0  0  0
  132.3830  136.2406  160.0970 N   0  0  0  0  0  0  0  0  0  0  0  0
  133.0068  135.4933  160.3624 H   0  0  0  0  0  0  0  0  0  0  0  0
  132.5530  136.4953  159.1356 H   0  0  0  0  0  0  0  0  0  0  0  0
  132.6185  137.4052  160.9610 C   0  0  0  0  0  0  0  0  0  0  0  0
  134.0676  137.8709  160.8052 C   0  0  2  0  0  0  0  0  0  0  0  0
  134.4474  138.8683  161.9277 C   0  0  0  0  0  0  0  0  0  0  0  0
  135.6150  139.6815  161.3322 C   0  0  2  0  0  0  0  0  0  0  0  0
  135.2826  140.9291  160.5112 C   0  0  0  0  0  0  0  0  0  0  0  0
  135.4807  139.5879  159.8021 C   0  0  2  0  0  0  0  0  0  0  0  0
  136.3448  139.4506  159.1521 H   0  0  0  0  0  0  0  0  0  0  0  0
  134.2359  138.7210  159.5213 C   0  0  0  0  0  0  0  0  0  0  0  0
  128.0873  135.1864  160.8335 O   0  0  0  0  0  0  0  0  0  0  0  0
  127.3191  135.7136  164.4594 C   0  0  0  0  0  0  0  0  0  0  0  0
  127.1302  134.7394  166.8982 H   0  0  0  0  0  0  0  0  0  0  0  0
  128.0669  136.0107  167.7196 H   0  0  0  0  0  0  0  0  0  0  0  0
  126.4930  135.5003  168.3758 H   0  0  0  0  0  0  0  0  0  0  0  0
  126.2989  137.6631  167.1785 H   0  0  0  0  0  0  0  0  0  0  0  0
  125.3622  136.3917  166.3570 H   0  0  0  0  0  0  0  0  0  0  0  0
  128.1053  137.4950  165.5101 H   0  0  0  0  0  0  0  0  0  0  0  0
  126.5338  138.6257  164.0073 H   0  0  0  0  0  0  0  0  0  0  0  0
  125.2694  137.3451  164.2573 H   0  0  0  0  0  0  0  0  0  0  0  0
  128.0200  137.0596  162.8478 H   0  0  0  0  0  0  0  0  0  0  0  0
  125.3151  136.2420  162.1596 H   0  0  0  0  0  0  0  0  0  0  0  0
  125.1431  133.8433  160.8083 H   0  0  0  0  0  0  0  0  0  0  0  0
  126.9299  132.6499  159.1813 H   0  0  0  0  0  0  0  0  0  0  0  0
  132.6843  134.3217  158.4197 H   0  0  0  0  0  0  0  0  0  0  0  0
  130.3179  136.6008  159.9598 H   0  0  0  0  0  0  0  0  0  0  0  0
  130.8080  135.5185  161.2851 H   0  0  0  0  0  0  0  0  0  0  0  0
  131.9447  138.2125  160.6744 H   0  0  0  0  0  0  0  0  0  0  0  0
  132.4349  137.1301  161.9995 H   0  0  0  0  0  0  0  0  0  0  0  0
  134.7468  137.0184  160.7959 H   0  0  0  0  0  0  0  0  0  0  0  0
  133.6058  139.5216  162.1582 H   0  0  0  0  0  0  0  0  0  0  0  0
  134.7713  138.3329  162.8201 H   0  0  0  0  0  0  0  0  0  0  0  0
  136.5863  139.6082  161.8213 H   0  0  0  0  0  0  0  0  0  0  0  0
  136.0655  141.6787  160.3965 H   0  0  0  0  0  0  0  0  0  0  0  0
  134.2664  141.3176  160.5770 H   0  0  0  0  0  0  0  0  0  0  0  0
  134.4057  138.0781  158.6577 H   0  0  0  0  0  0  0  0  0  0  0  0
  133.3593  139.3489  159.3620 H   0  0  0  0  0  0  0  0  0  0  0  0
  126.5241  134.9821  164.6045 H   0  0  0  0  0  0  0  0  0  0  0  0
  128.3148  135.2718  164.5001 H   0  0  0  0  0  0  0  0  0  0  0  0
  1  2  1  0
  1 31  1  0
  1 32  1  0
  1 33  1  0
  2  3  1  0
  2 34  1  0
  2 35  1  0
  3 30  1  0
  3  4  1  0
  3 36  1  1
  4  5  1  0
  4 37  1  0
  4 38  1  0
  5  6  1  0
  5 30  1  0
  5 39  1  6
  6  7  1  0
  6 40  1  0
  7 29  1  0
  7  8  2  0
  8  9  1  0
  8 41  1  0
  9 10  2  0
  9 42  1  0
 10 11  1  0
 10 29  1  0
 11 16  1  0
 11 12  2  0
 12 13  1  0
 13 14  1  0
 13 15  1  0
 15 16  2  0
 15 43  1  0
 16 17  1  0
 17 18  1  0
 17 44  1  0
 17 45  1  0
 18 19  1  0
 18 20  1  0
 18 21  1  0
 21 22  1  0
 21 46  1  0
 21 47  1  0
 22 28  1  0
 22 23  1  0
 22 48  1  6
 23 24  1  0
 23 49  1  0
 23 50  1  0
 24 26  1  0
 24 25  1  0
 24 51  1  1
 25 26  1  0
 25 52  1  0
 25 53  1  0
 26 27  1  6
 26 28  1  0
 28 54  1  0
 28 55  1  0
 30 56  1  0
 30 57  1  0
M  CHG  1  18   1
M  END
>  <DOCK_score>  (1) 
-48.763218

>  <SMILES>  (1) 
CCC1CC(Nc2ccc(-c3n[nH]cc3C[NH2+]CC3CC4C[C@@H]4C3)o2)C1

$$$$
