CC=Cc1cc(Nc2[nH]cc(-c3cccnc3)[nH+]2)ccn1
     RDKit          3D

 37 39  0  0  1  0  0  0  0  0999 V2000
  128.1007  137.6777  165.4929 C   0  0  0  0  0  0  0  0  0  0  0  0
  127.7924  137.2753  164.0736 C   0  0  0  0  0  0  0  0  0  0  0  0
  128.7633  136.8407  163.2820 C   0  0  0  0  0  0  0  0  0  0  0  0
  128.4609  136.4462  161.8903 C   0  0  0  0  0  0  0  0  0  0  0  0
  129.4842  135.9847  161.0660 C   0  0  0  0  0  0  0  0  0  0  0  0
  129.1828  135.6221  159.7563 C   0  0  0  0  0  0  0  0  0  0  0  0
  130.1775  135.1607  158.8965 N   0  0  0  0  0  0  0  0  0  0  0  0
  130.0826  133.8933  158.3442 C   0  0  0  0  0  0  0  0  0  0  0  0
  129.4822  132.8185  158.9244 N   0  0  0  0  0  0  0  0  0  0  0  0
  129.0476  132.8018  159.7915 H   0  0  0  0  0  0  0  0  0  0  0  0
  129.6023  131.7630  158.0545 C   0  0  0  0  0  0  0  0  0  0  0  0
  130.2804  132.2199  156.9723 C   0  0  0  0  0  0  0  0  0  0  0  0
  130.6489  131.4268  155.7742 C   0  0  0  0  0  0  0  0  0  0  0  0
  130.1828  131.7938  154.5083 C   0  0  0  0  0  0  0  0  0  0  0  0
  130.5589  131.0237  153.4216 C   0  0  0  0  0  0  0  0  0  0  0  0
  131.3681  129.9198  153.6222 C   0  0  0  0  0  0  0  0  0  0  0  0
  131.7884  129.5952  154.8294 N   0  0  0  0  0  0  0  0  0  0  0  0
  131.4605  130.3004  155.8928 C   0  0  0  0  0  0  0  0  0  0  0  0
  130.5614  133.5305  157.1793 N   0  0  0  0  0  0  0  0  0  0  0  0
  131.0402  134.1071  156.5635 H   0  0  0  0  0  0  0  0  0  0  0  0
  127.8585  135.7269  159.3271 C   0  0  0  0  0  0  0  0  0  0  0  0
  126.8984  136.1876  160.2044 C   0  0  0  0  0  0  0  0  0  0  0  0
  127.2139  136.5293  161.4381 N   0  0  0  0  0  0  0  0  0  0  0  0
  127.1848  138.0052  165.9846 H   0  0  0  0  0  0  0  0  0  0  0  0
  128.5168  136.8253  166.0299 H   0  0  0  0  0  0  0  0  0  0  0  0
  128.8235  138.4936  165.4903 H   0  0  0  0  0  0  0  0  0  0  0  0
  126.7807  137.3409  163.7013 H   0  0  0  0  0  0  0  0  0  0  0  0
  129.7750  136.7752  163.6541 H   0  0  0  0  0  0  0  0  0  0  0  0
  130.4963  135.9128  161.4359 H   0  0  0  0  0  0  0  0  0  0  0  0
  130.9362  135.7267  158.6846 H   0  0  0  0  0  0  0  0  0  0  0  0
  129.2319  130.7598  158.2052 H   0  0  0  0  0  0  0  0  0  0  0  0
  129.5484  132.6586  154.3812 H   0  0  0  0  0  0  0  0  0  0  0  0
  130.2210  131.2795  152.4283 H   0  0  0  0  0  0  0  0  0  0  0  0
  131.6606  129.3147  152.7769 H   0  0  0  0  0  0  0  0  0  0  0  0
  131.8243  130.0029  156.8653 H   0  0  0  0  0  0  0  0  0  0  0  0
  127.5882  135.4496  158.3188 H   0  0  0  0  0  0  0  0  0  0  0  0
  125.8731  136.2701  159.8754 H   0  0  0  0  0  0  0  0  0  0  0  0
  1  2  1  0
  1 24  1  0
  1 25  1  0
  1 26  1  0
  2  3  2  0
  2 27  1  0
  3  4  1  0
  3 28  1  0
  4 23  2  0
  4  5  1  0
  5  6  2  0
  5 29  1  0
  6  7  1  0
  6 21  1  0
  7 30  1  0
  8  7  1  0
  8 19  2  0
  8  9  1  0
  9 10  1  0
  9 11  1  0
 11 12  2  0
 11 31  1  0
 12 13  1  0
 12 19  1  0
 13 18  1  0
 13 14  2  0
 14 15  1  0
 14 32  1  0
 15 16  2  0
 15 33  1  0
 16 17  1  0
 16 34  1  0
 17 18  2  0
 18 35  1  0
 19 20  1  0
 21 22  2  0
 21 36  1  0
 22 23  1  0
 22 37  1  0
M  CHG  1  19   1
M  END
>  <DOCK_score>  (1) 
-44.878094

>  <SMILES>  (1) 
CC=Cc1cc(Nc2[nH]cc(-c3cccnc3)[nH+]2)ccn1

$$$$
