C[NH2+][C@@H](C(=O)Nc1cccc(O)c1)c1cccc(-c2ccc(Br)cc2)c1
     RDKit          3D

 46 48  0  0  1  0  0  0  0  0999 V2000
  130.9169  132.2647  157.2278 C   0  0  0  0  0  0  0  0  0  0  0  0
  131.5908  132.6836  158.4641 N   0  0  0  0  0  0  0  0  0  0  0  0
  132.5038  133.0509  158.2415 H   0  0  0  0  0  0  0  0  0  0  0  0
  131.6884  131.8899  159.0794 H   0  0  0  0  0  0  0  0  0  0  0  0
  130.7933  133.7231  159.1284 C   0  0  1  0  0  0  0  0  0  0  0  0
  130.6879  134.5804  158.4637 H   0  0  0  0  0  0  0  0  0  0  0  0
  129.4297  133.1744  159.4609 C   0  0  0  0  0  0  0  0  0  0  0  0
  129.2924  131.9925  159.6960 O   0  0  0  0  0  0  0  0  0  0  0  0
  128.3628  133.9970  159.4968 N   0  0  0  0  0  0  0  0  0  0  0  0
  127.0967  133.4876  159.8053 C   0  0  0  0  0  0  0  0  0  0  0  0
  126.7729  132.1787  159.4706 C   0  0  0  0  0  0  0  0  0  0  0  0
  125.5251  131.6742  159.7802 C   0  0  0  0  0  0  0  0  0  0  0  0
  124.5915  132.4728  160.4134 C   0  0  0  0  0  0  0  0  0  0  0  0
  124.9073  133.7827  160.7451 C   0  0  0  0  0  0  0  0  0  0  0  0
  123.9883  134.5671  161.3672 O   0  0  0  0  0  0  0  0  0  0  0  0
  126.1607  134.2910  160.4411 C   0  0  0  0  0  0  0  0  0  0  0  0
  131.4847  134.1527  160.3967 C   0  0  0  0  0  0  0  0  0  0  0  0
  131.2082  133.5048  161.5874 C   0  0  0  0  0  0  0  0  0  0  0  0
  131.8437  133.8899  162.7539 C   0  0  0  0  0  0  0  0  0  0  0  0
  132.7495  134.9314  162.7377 C   0  0  0  0  0  0  0  0  0  0  0  0
  133.0317  135.5875  161.5416 C   0  0  0  0  0  0  0  0  0  0  0  0
  134.0095  136.7035  161.5170 C   0  0  0  0  0  0  0  0  0  0  0  0
  133.8741  137.7309  160.5855 C   0  0  0  0  0  0  0  0  0  0  0  0
  134.7830  138.7693  160.5703 C   0  0  0  0  0  0  0  0  0  0  0  0
  135.8337  138.7857  161.4711 C   0  0  0  0  0  0  0  0  0  0  0  0
  137.0796  140.2079  161.4397 Br  0  0  0  0  0  0  0  0  0  0  0  0
  135.9757  137.7645  162.3945 C   0  0  0  0  0  0  0  0  0  0  0  0
  135.0692  136.7245  162.4215 C   0  0  0  0  0  0  0  0  0  0  0  0
  132.3928  135.1915  160.3681 C   0  0  0  0  0  0  0  0  0  0  0  0
  129.9305  131.8677  157.4682 H   0  0  0  0  0  0  0  0  0  0  0  0
  130.8115  133.1220  156.5631 H   0  0  0  0  0  0  0  0  0  0  0  0
  131.5086  131.4933  156.7349 H   0  0  0  0  0  0  0  0  0  0  0  0
  128.4726  134.9422  159.3087 H   0  0  0  0  0  0  0  0  0  0  0  0
  127.4991  131.5539  158.9717 H   0  0  0  0  0  0  0  0  0  0  0  0
  125.2766  130.6552  159.5229 H   0  0  0  0  0  0  0  0  0  0  0  0
  123.6152  132.0770  160.6507 H   0  0  0  0  0  0  0  0  0  0  0  0
  124.2996  135.4625  161.5575 H   0  0  0  0  0  0  0  0  0  0  0  0
  126.4083  135.3101  160.6988 H   0  0  0  0  0  0  0  0  0  0  0  0
  130.4967  132.6926  161.6053 H   0  0  0  0  0  0  0  0  0  0  0  0
  131.6279  133.3775  163.6797 H   0  0  0  0  0  0  0  0  0  0  0  0
  133.2418  135.2343  163.6502 H   0  0  0  0  0  0  0  0  0  0  0  0
  133.0573  137.7166  159.8792 H   0  0  0  0  0  0  0  0  0  0  0  0
  134.6768  139.5680  159.8511 H   0  0  0  0  0  0  0  0  0  0  0  0
  136.7975  137.7816  163.0950 H   0  0  0  0  0  0  0  0  0  0  0  0
  135.1806  135.9283  163.1426 H   0  0  0  0  0  0  0  0  0  0  0  0
  132.6081  135.6964  159.4380 H   0  0  0  0  0  0  0  0  0  0  0  0
  1  2  1  0
  1 30  1  0
  1 31  1  0
  1 32  1  0
  2  3  1  0
  2  4  1  0
  2  5  1  0
  5  6  1  6
  5  7  1  0
  5 17  1  0
  7  8  2  0
  7  9  1  0
  9 10  1  0
  9 33  1  0
 10 16  1  0
 10 11  2  0
 11 12  1  0
 11 34  1  0
 12 13  2  0
 12 35  1  0
 13 14  1  0
 13 36  1  0
 14 15  1  0
 14 16  2  0
 15 37  1  0
 16 38  1  0
 17 29  1  0
 17 18  2  0
 18 19  1  0
 18 39  1  0
 19 20  2  0
 19 40  1  0
 20 21  1  0
 20 41  1  0
 21 22  1  0
 21 29  2  0
 22 28  1  0
 22 23  2  0
 23 24  1  0
 23 42  1  0
 24 25  2  0
 24 43  1  0
 25 26  1  0
 25 27  1  0
 27 28  2  0
 27 44  1  0
 28 45  1  0
 29 46  1  0
M  CHG  1   2   1
M  END
>  <DOCK_score>  (1) 
-46.008862

>  <SMILES>  (1) 
C[NH2+][C@@H](C(=O)Nc1cccc(O)c1)c1cccc(-c2ccc(Br)cc2)c1

$$$$
