O=C1CC[C@H]([NH+]=C(NC2CC2)N[C@H]2Cc3ccc(Cl)cc3C2)CN1
     RDKit          3D

 48 51  0  0  1  0  0  0  0  0999 V2000
  123.7346  133.7900  161.3433 O   0  0  0  0  0  0  0  0  0  0  0  0
  124.9212  133.9820  161.1827 C   0  0  0  0  0  0  0  0  0  0  0  0
  125.6835  133.0279  160.3087 C   0  0  0  0  0  0  0  0  0  0  0  0
  127.1848  133.1644  160.5743 C   0  0  0  0  0  0  0  0  0  0  0  0
  127.5513  134.6528  160.5311 C   0  0  2  0  0  0  0  0  0  0  0  0
  127.1873  135.0922  159.6022 H   0  0  0  0  0  0  0  0  0  0  0  0
  129.0065  134.8032  160.6086 N   0  0  0  0  0  0  0  0  0  0  0  0
  129.4398  134.8892  161.4722 H   0  0  0  0  0  0  0  0  0  0  0  0
  129.7189  134.8214  159.5174 C   0  0  0  0  0  0  0  0  0  0  0  0
  130.8924  135.5366  159.4743 N   0  0  0  0  0  0  0  0  0  0  0  0
  131.3420  136.2780  160.6551 C   0  0  0  0  0  0  0  0  0  0  0  0
  130.3411  137.2277  161.3164 C   0  0  0  0  0  0  0  0  0  0  0  0
  131.5169  137.7915  160.5144 C   0  0  0  0  0  0  0  0  0  0  0  0
  129.2969  134.1257  158.4091 N   0  0  0  0  0  0  0  0  0  0  0  0
  130.2789  133.5829  157.4673 C   0  0  1  0  0  0  0  0  0  0  0  0
  131.1775  134.1992  157.4446 H   0  0  0  0  0  0  0  0  0  0  0  0
  130.6266  132.1186  157.8162 C   0  0  0  0  0  0  0  0  0  0  0  0
  130.8369  131.4317  156.4838 C   0  0  0  0  0  0  0  0  0  0  0  0
  131.4599  130.2323  156.1812 C   0  0  0  0  0  0  0  0  0  0  0  0
  131.5338  129.7980  154.8724 C   0  0  0  0  0  0  0  0  0  0  0  0
  130.9834  130.5630  153.8593 C   0  0  0  0  0  0  0  0  0  0  0  0
  131.0751  130.0206  152.2128 Cl  0  0  0  0  0  0  0  0  0  0  0  0
  130.3610  131.7600  154.1600 C   0  0  0  0  0  0  0  0  0  0  0  0
  130.2869  132.1964  155.4721 C   0  0  0  0  0  0  0  0  0  0  0  0
  129.6695  133.4493  156.0555 C   0  0  0  0  0  0  0  0  0  0  0  0
  126.8988  135.3526  161.7239 C   0  0  0  0  0  0  0  0  0  0  0  0
  125.4792  135.0293  161.7910 N   0  0  0  0  0  0  0  0  0  0  0  0
  125.4791  133.2533  159.2621 H   0  0  0  0  0  0  0  0  0  0  0  0
  125.3687  132.0073  160.5262 H   0  0  0  0  0  0  0  0  0  0  0  0
  127.7434  132.6265  159.8083 H   0  0  0  0  0  0  0  0  0  0  0  0
  127.4229  132.7563  161.5566 H   0  0  0  0  0  0  0  0  0  0  0  0
  131.4225  135.5501  158.6621 H   0  0  0  0  0  0  0  0  0  0  0  0
  132.0390  135.7491  161.3051 H   0  0  0  0  0  0  0  0  0  0  0  0
  129.3482  137.3008  160.8727 H   0  0  0  0  0  0  0  0  0  0  0  0
  130.3799  137.3239  162.4014 H   0  0  0  0  0  0  0  0  0  0  0  0
  132.3287  138.2583  161.0724 H   0  0  0  0  0  0  0  0  0  0  0  0
  131.2978  138.2354  159.5434 H   0  0  0  0  0  0  0  0  0  0  0  0
  128.3488  133.9944  158.2508 H   0  0  0  0  0  0  0  0  0  0  0  0
  129.8013  131.6536  158.3554 H   0  0  0  0  0  0  0  0  0  0  0  0
  131.5385  132.0758  158.4119 H   0  0  0  0  0  0  0  0  0  0  0  0
  131.8897  129.6347  156.9714 H   0  0  0  0  0  0  0  0  0  0  0  0
  132.0209  128.8626  154.6399 H   0  0  0  0  0  0  0  0  0  0  0  0
  129.9315  132.3570  153.3690 H   0  0  0  0  0  0  0  0  0  0  0  0
  129.9284  134.3165  155.4482 H   0  0  0  0  0  0  0  0  0  0  0  0
  128.5866  133.3428  156.1195 H   0  0  0  0  0  0  0  0  0  0  0  0
  127.3862  135.0275  162.6431 H   0  0  0  0  0  0  0  0  0  0  0  0
  127.0182  136.4309  161.6185 H   0  0  0  0  0  0  0  0  0  0  0  0
  124.9042  135.6124  162.3109 H   0  0  0  0  0  0  0  0  0  0  0  0
  1  2  2  0
  2 27  1  0
  2  3  1  0
  3  4  1  0
  3 28  1  0
  3 29  1  0
  4  5  1  0
  4 30  1  0
  4 31  1  0
  5  6  1  6
  5  7  1  0
  5 26  1  0
  7  8  1  0
  9  7  2  0
  9 10  1  0
  9 14  1  0
 10 11  1  0
 10 32  1  0
 11 13  1  0
 11 12  1  0
 11 33  1  0
 12 13  1  0
 12 34  1  0
 12 35  1  0
 13 36  1  0
 13 37  1  0
 14 15  1  0
 14 38  1  0
 15 16  1  6
 15 25  1  0
 15 17  1  0
 17 18  1  0
 17 39  1  0
 17 40  1  0
 18 24  2  0
 18 19  1  0
 19 20  2  0
 19 41  1  0
 20 21  1  0
 20 42  1  0
 21 22  1  0
 21 23  2  0
 23 24  1  0
 23 43  1  0
 24 25  1  0
 25 44  1  0
 25 45  1  0
 26 27  1  0
 26 46  1  0
 26 47  1  0
 27 48  1  0
M  CHG  1   7   1
M  END
>  <DOCK_score>  (1) 
-48.556168

>  <SMILES>  (1) 
O=C1CC[C@H]([NH+]=C(NC2CC2)N[C@H]2Cc3ccc(Cl)cc3C2)CN1

$$$$
