CC=CNc1ccc([C@H](c2ccccc2)[NH+]2CCN(c3cccc(C)c3C)CC2)cc1N
     RDKit          3D

 67 70  0  0  1  0  0  0  0  0999 V2000
  130.6131  128.8147  151.9371 C   0  0  0  0  0  0  0  0  0  0  0  0
  131.3724  128.9967  153.2261 C   0  0  0  0  0  0  0  0  0  0  0  0
  130.9345  129.8477  154.1359 C   0  0  0  0  0  0  0  0  0  0  0  0
  131.6346  130.0154  155.3239 N   0  0  0  0  0  0  0  0  0  0  0  0
  131.1701  130.9176  156.2886 C   0  0  0  0  0  0  0  0  0  0  0  0
  131.0372  132.2626  155.9764 C   0  0  0  0  0  0  0  0  0  0  0  0
  130.5739  133.1508  156.9291 C   0  0  0  0  0  0  0  0  0  0  0  0
  130.2518  132.7046  158.1976 C   0  0  0  0  0  0  0  0  0  0  0  0
  129.7524  133.6796  159.2325 C   0  0  2  0  0  0  0  0  0  0  0  0
  129.5516  133.1498  160.1637 H   0  0  0  0  0  0  0  0  0  0  0  0
  128.4845  134.3287  158.7405 C   0  0  0  0  0  0  0  0  0  0  0  0
  127.2594  133.7523  159.0199 C   0  0  0  0  0  0  0  0  0  0  0  0
  126.0962  134.3501  158.5721 C   0  0  0  0  0  0  0  0  0  0  0  0
  126.1585  135.5192  157.8371 C   0  0  0  0  0  0  0  0  0  0  0  0
  127.3838  136.0930  157.5536 C   0  0  0  0  0  0  0  0  0  0  0  0
  128.5468  135.4974  158.0049 C   0  0  0  0  0  0  0  0  0  0  0  0
  130.7720  134.7111  159.4658 N   0  0  0  0  0  0  0  0  0  0  0  0
  130.9575  135.2012  158.6036 H   0  0  0  0  0  0  0  0  0  0  0  0
  130.2845  135.6617  160.4739 C   0  0  0  0  0  0  0  0  0  0  0  0
  131.3386  136.7470  160.7036 C   0  0  0  0  0  0  0  0  0  0  0  0
  132.5893  136.1230  161.1580 N   0  0  0  0  0  0  0  0  0  0  0  0
  133.5606  137.0890  161.4301 C   0  0  0  0  0  0  0  0  0  0  0  0
  133.9882  137.9487  160.4259 C   0  0  0  0  0  0  0  0  0  0  0  0
  134.9483  138.9029  160.6986 C   0  0  0  0  0  0  0  0  0  0  0  0
  135.4847  139.0031  161.9694 C   0  0  0  0  0  0  0  0  0  0  0  0
  135.0615  138.1491  162.9711 C   0  0  0  0  0  0  0  0  0  0  0  0
  135.6488  138.2620  164.3544 C   0  0  0  0  0  0  0  0  0  0  0  0
  134.0973  137.1960  162.7067 C   0  0  0  0  0  0  0  0  0  0  0  0
  133.6321  136.2698  163.8007 C   0  0  0  0  0  0  0  0  0  0  0  0
  133.0762  135.1501  160.1697 C   0  0  0  0  0  0  0  0  0  0  0  0
  132.0079  134.0780  159.9445 C   0  0  0  0  0  0  0  0  0  0  0  0
  130.3811  131.3659  158.5176 C   0  0  0  0  0  0  0  0  0  0  0  0
  130.8401  130.4668  157.5668 C   0  0  0  0  0  0  0  0  0  0  0  0
  130.9722  129.1111  157.8886 N   0  0  0  0  0  0  0  0  0  0  0  0
  129.6029  128.4690  152.1564 H   0  0  0  0  0  0  0  0  0  0  0  0
  130.5645  129.7657  151.4066 H   0  0  0  0  0  0  0  0  0  0  0  0
  131.1226  128.0779  151.3163 H   0  0  0  0  0  0  0  0  0  0  0  0
  132.2749  128.4314  153.4056 H   0  0  0  0  0  0  0  0  0  0  0  0
  130.0321  130.4131  153.9563 H   0  0  0  0  0  0  0  0  0  0  0  0
  132.4449  129.5076  155.4852 H   0  0  0  0  0  0  0  0  0  0  0  0
  131.2916  132.6150  154.9877 H   0  0  0  0  0  0  0  0  0  0  0  0
  130.4673  134.1969  156.6831 H   0  0  0  0  0  0  0  0  0  0  0  0
  127.2110  132.8368  159.5907 H   0  0  0  0  0  0  0  0  0  0  0  0
  125.1390  133.9020  158.7939 H   0  0  0  0  0  0  0  0  0  0  0  0
  125.2498  135.9844  157.4843 H   0  0  0  0  0  0  0  0  0  0  0  0
  127.4325  137.0063  156.9792 H   0  0  0  0  0  0  0  0  0  0  0  0
  129.5041  135.9456  157.7832 H   0  0  0  0  0  0  0  0  0  0  0  0
  130.0961  135.1346  161.4092 H   0  0  0  0  0  0  0  0  0  0  0  0
  129.3604  136.1211  160.1232 H   0  0  0  0  0  0  0  0  0  0  0  0
  130.9834  137.4441  161.4625 H   0  0  0  0  0  0  0  0  0  0  0  0
  131.5173  137.2834  159.7717 H   0  0  0  0  0  0  0  0  0  0  0  0
  133.5697  137.8710  159.4333 H   0  0  0  0  0  0  0  0  0  0  0  0
  135.2810  139.5715  159.9185 H   0  0  0  0  0  0  0  0  0  0  0  0
  136.2354  139.7503  162.1800 H   0  0  0  0  0  0  0  0  0  0  0  0
  135.0535  138.9573  164.9462 H   0  0  0  0  0  0  0  0  0  0  0  0
  135.6445  137.2823  164.8320 H   0  0  0  0  0  0  0  0  0  0  0  0
  136.6731  138.6281  164.2854 H   0  0  0  0  0  0  0  0  0  0  0  0
  134.2571  135.3768  163.8107 H   0  0  0  0  0  0  0  0  0  0  0  0
  133.7075  136.7769  164.7626 H   0  0  0  0  0  0  0  0  0  0  0  0
  132.5954  135.9857  163.6199 H   0  0  0  0  0  0  0  0  0  0  0  0
  133.2838  135.6601  159.2290 H   0  0  0  0  0  0  0  0  0  0  0  0
  133.9888  134.6823  160.5390 H   0  0  0  0  0  0  0  0  0  0  0  0
  131.8106  133.5590  160.8824 H   0  0  0  0  0  0  0  0  0  0  0  0
  132.3615  133.3634  159.2012 H   0  0  0  0  0  0  0  0  0  0  0  0
  130.1250  131.0202  159.5083 H   0  0  0  0  0  0  0  0  0  0  0  0
  130.7425  128.7991  158.7780 H   0  0  0  0  0  0  0  0  0  0  0  0
  131.2934  128.4834  157.2224 H   0  0  0  0  0  0  0  0  0  0  0  0
  1  2  1  0
  1 35  1  0
  1 36  1  0
  1 37  1  0
  2  3  2  0
  2 38  1  0
  3  4  1  0
  3 39  1  0
  4  5  1  0
  4 40  1  0
  5 33  2  0
  5  6  1  0
  6  7  2  0
  6 41  1  0
  7  8  1  0
  7 42  1  0
  8  9  1  0
  8 32  2  0
  9 10  1  1
  9 11  1  0
  9 17  1  0
 11 16  1  0
 11 12  2  0
 12 13  1  0
 12 43  1  0
 13 14  2  0
 13 44  1  0
 14 15  1  0
 14 45  1  0
 15 16  2  0
 15 46  1  0
 16 47  1  0
 17 18  1  0
 17 31  1  0
 17 19  1  0
 19 20  1  0
 19 48  1  0
 19 49  1  0
 20 21  1  0
 20 50  1  0
 20 51  1  0
 21 22  1  0
 21 30  1  0
 22 28  1  0
 22 23  2  0
 23 24  1  0
 23 52  1  0
 24 25  2  0
 24 53  1  0
 25 26  1  0
 25 54  1  0
 26 27  1  0
 26 28  2  0
 27 55  1  0
 27 56  1  0
 27 57  1  0
 28 29  1  0
 29 58  1  0
 29 59  1  0
 29 60  1  0
 30 31  1  0
 30 61  1  0
 30 62  1  0
 31 63  1  0
 31 64  1  0
 32 33  1  0
 32 65  1  0
 33 34  1  0
 34 66  1  0
 34 67  1  0
M  CHG  1  17   1
M  END
>  <DOCK_score>  (1) 
-56.704346

>  <SMILES>  (1) 
CC=CNc1ccc([C@H](c2ccccc2)[NH+]2CCN(c3cccc(C)c3C)CC2)cc1N

$$$$
