Nc1ccc(-c2c[nH]c(N[C@H](c3ccccc3)c3ccc(C4CC=CC4)cc3)[nH+]2)cc1
     RDKit          3D

 58 62  0  0  1  0  0  0  0  0999 V2000
  131.8055  129.4992  152.1110 N   0  0  0  0  0  0  0  0  0  0  0  0
  131.4273  130.1777  153.2721 C   0  0  0  0  0  0  0  0  0  0  0  0
  130.6444  131.3233  153.1818 C   0  0  0  0  0  0  0  0  0  0  0  0
  130.2702  131.9955  154.3261 C   0  0  0  0  0  0  0  0  0  0  0  0
  130.6772  131.5256  155.5738 C   0  0  0  0  0  0  0  0  0  0  0  0
  130.2763  132.2474  156.8064 C   0  0  0  0  0  0  0  0  0  0  0  0
  129.5417  131.7381  157.8260 C   0  0  0  0  0  0  0  0  0  0  0  0
  129.4048  132.7397  158.7578 N   0  0  0  0  0  0  0  0  0  0  0  0
  128.9288  132.6791  159.6008 H   0  0  0  0  0  0  0  0  0  0  0  0
  130.0606  133.8316  158.2789 C   0  0  0  0  0  0  0  0  0  0  0  0
  130.1624  135.0555  158.9179 N   0  0  0  0  0  0  0  0  0  0  0  0
  129.0910  135.5082  159.8085 C   0  0  2  0  0  0  0  0  0  0  0  0
  128.9704  134.7948  160.6237 H   0  0  0  0  0  0  0  0  0  0  0  0
  127.8023  135.6082  159.0337 C   0  0  0  0  0  0  0  0  0  0  0  0
  126.5942  135.3950  159.6710 C   0  0  0  0  0  0  0  0  0  0  0  0
  125.4119  135.4911  158.9613 C   0  0  0  0  0  0  0  0  0  0  0  0
  125.4381  135.7911  157.6121 C   0  0  0  0  0  0  0  0  0  0  0  0
  126.6464  135.9992  156.9736 C   0  0  0  0  0  0  0  0  0  0  0  0
  127.8286  135.9073  157.6844 C   0  0  0  0  0  0  0  0  0  0  0  0
  129.4442  136.8604  160.3724 C   0  0  0  0  0  0  0  0  0  0  0  0
  129.6473  137.9319  159.5228 C   0  0  0  0  0  0  0  0  0  0  0  0
  129.9709  139.1724  160.0401 C   0  0  0  0  0  0  0  0  0  0  0  0
  130.0907  139.3415  161.4069 C   0  0  0  0  0  0  0  0  0  0  0  0
  130.4434  140.6938  161.9707 C   0  0  0  0  0  0  0  0  0  0  0  0
  131.6470  140.5957  162.9367 C   0  0  0  0  0  0  0  0  0  0  0  0
  131.3362  141.5775  164.0425 C   0  0  0  0  0  0  0  0  0  0  0  0
  130.0746  141.9124  164.0328 C   0  0  0  0  0  0  0  0  0  0  0  0
  129.3338  141.2099  162.9189 C   0  0  0  0  0  0  0  0  0  0  0  0
  129.8927  138.2688  162.2560 C   0  0  0  0  0  0  0  0  0  0  0  0
  129.5653  137.0292  161.7390 C   0  0  0  0  0  0  0  0  0  0  0  0
  130.5751  133.5353  157.1103 N   0  0  0  0  0  0  0  0  0  0  0  0
  131.0893  134.1399  156.5527 H   0  0  0  0  0  0  0  0  0  0  0  0
  131.4663  130.3798  155.6613 C   0  0  0  0  0  0  0  0  0  0  0  0
  131.8337  129.7077  154.5146 C   0  0  0  0  0  0  0  0  0  0  0  0
  131.5219  129.8267  151.2432 H   0  0  0  0  0  0  0  0  0  0  0  0
  132.3518  128.7000  152.1729 H   0  0  0  0  0  0  0  0  0  0  0  0
  130.3293  131.6869  152.2150 H   0  0  0  0  0  0  0  0  0  0  0  0
  129.6619  132.8851  154.2558 H   0  0  0  0  0  0  0  0  0  0  0  0
  129.1405  130.7377  157.8929 H   0  0  0  0  0  0  0  0  0  0  0  0
  130.9432  135.6133  158.7759 H   0  0  0  0  0  0  0  0  0  0  0  0
  126.5741  135.1569  160.7242 H   0  0  0  0  0  0  0  0  0  0  0  0
  124.4679  135.3289  159.4601 H   0  0  0  0  0  0  0  0  0  0  0  0
  124.5147  135.8635  157.0570 H   0  0  0  0  0  0  0  0  0  0  0  0
  126.6669  136.2335  155.9196 H   0  0  0  0  0  0  0  0  0  0  0  0
  128.7725  136.0698  157.1855 H   0  0  0  0  0  0  0  0  0  0  0  0
  129.5530  137.7999  158.4552 H   0  0  0  0  0  0  0  0  0  0  0  0
  130.1297  140.0094  159.3764 H   0  0  0  0  0  0  0  0  0  0  0  0
  130.6395  141.4096  161.1726 H   0  0  0  0  0  0  0  0  0  0  0  0
  132.5677  140.8779  162.4261 H   0  0  0  0  0  0  0  0  0  0  0  0
  131.7304  139.5857  163.3380 H   0  0  0  0  0  0  0  0  0  0  0  0
  132.0624  141.9525  164.7484 H   0  0  0  0  0  0  0  0  0  0  0  0
  129.6200  142.6009  164.7296 H   0  0  0  0  0  0  0  0  0  0  0  0
  128.7562  140.3746  163.3148 H   0  0  0  0  0  0  0  0  0  0  0  0
  128.6802  141.9091  162.3976 H   0  0  0  0  0  0  0  0  0  0  0  0
  129.9907  138.3998  163.3235 H   0  0  0  0  0  0  0  0  0  0  0  0
  129.4070  136.1920  162.4028 H   0  0  0  0  0  0  0  0  0  0  0  0
  131.7862  130.0163  156.6268 H   0  0  0  0  0  0  0  0  0  0  0  0
  132.4417  128.8176  154.5822 H   0  0  0  0  0  0  0  0  0  0  0  0
  1  2  1  0
  1 35  1  0
  1 36  1  0
  2 34  2  0
  2  3  1  0
  3  4  2  0
  3 37  1  0
  4  5  1  0
  4 38  1  0
  5  6  1  0
  5 33  2  0
  6 31  1  0
  6  7  2  0
  7  8  1  0
  7 39  1  0
  8  9  1  0
  8 10  1  0
 10 11  1  0
 10 31  2  0
 11 12  1  0
 11 40  1  0
 12 13  1  1
 12 14  1  0
 12 20  1  0
 14 19  1  0
 14 15  2  0
 15 16  1  0
 15 41  1  0
 16 17  2  0
 16 42  1  0
 17 18  1  0
 17 43  1  0
 18 19  2  0
 18 44  1  0
 19 45  1  0
 20 30  1  0
 20 21  2  0
 21 22  1  0
 21 46  1  0
 22 23  2  0
 22 47  1  0
 23 24  1  0
 23 29  1  0
 24 28  1  0
 24 25  1  0
 24 48  1  0
 25 26  1  0
 25 49  1  0
 25 50  1  0
 26 27  2  0
 26 51  1  0
 27 28  1  0
 27 52  1  0
 28 53  1  0
 28 54  1  0
 29 30  2  0
 29 55  1  0
 30 56  1  0
 31 32  1  0
 33 34  1  0
 33 57  1  0
 34 58  1  0
M  CHG  1  31   1
M  END
>  <DOCK_score>  (1) 
-66.917824

>  <SMILES>  (1) 
Nc1ccc(-c2c[nH]c(N[C@H](c3ccccc3)c3ccc(C4CC=CC4)cc3)[nH+]2)cc1

$$$$
