O=C1CC[C@H](NC(NC2CCC2)=[NH+]CCc2c[nH]c3c(Cl)cccc23)CN1
     RDKit          3D

 54 57  0  0  1  0  0  0  0  0999 V2000
  123.6883  133.6891  161.6309 O   0  0  0  0  0  0  0  0  0  0  0  0
  124.8546  133.9323  161.4038 C   0  0  0  0  0  0  0  0  0  0  0  0
  125.7104  132.8388  160.8317 C   0  0  0  0  0  0  0  0  0  0  0  0
  127.1898  133.1807  161.0240 C   0  0  0  0  0  0  0  0  0  0  0  0
  127.4210  134.6197  160.5471 C   0  0  2  0  0  0  0  0  0  0  0  0
  127.0292  134.7402  159.5371 H   0  0  0  0  0  0  0  0  0  0  0  0
  128.8555  134.9163  160.5565 N   0  0  0  0  0  0  0  0  0  0  0  0
  129.6161  134.6694  159.4382 C   0  0  0  0  0  0  0  0  0  0  0  0
  129.0303  134.1441  158.3108 N   0  0  0  0  0  0  0  0  0  0  0  0
  129.8407  133.8810  157.1191 C   0  0  0  0  0  0  0  0  0  0  0  0
  129.2271  132.8326  156.1760 C   0  0  0  0  0  0  0  0  0  0  0  0
  130.6526  132.2905  155.9789 C   0  0  0  0  0  0  0  0  0  0  0  0
  130.9836  132.8807  157.3598 C   0  0  0  0  0  0  0  0  0  0  0  0
  130.8925  134.9334  159.4468 N   0  0  0  0  0  0  0  0  0  0  0  0
  131.4291  134.7592  158.6577 H   0  0  0  0  0  0  0  0  0  0  0  0
  131.5153  135.4988  160.6462 C   0  0  0  0  0  0  0  0  0  0  0  0
  133.0091  135.7116  160.3930 C   0  0  0  0  0  0  0  0  0  0  0  0
  133.6499  136.2932  161.6268 C   0  0  0  0  0  0  0  0  0  0  0  0
  133.4533  135.8929  162.8929 C   0  0  0  0  0  0  0  0  0  0  0  0
  134.2066  136.6536  163.7448 N   0  0  0  0  0  0  0  0  0  0  0  0
  134.2332  136.5499  164.7089 H   0  0  0  0  0  0  0  0  0  0  0  0
  134.9181  137.5913  163.0298 C   0  0  0  0  0  0  0  0  0  0  0  0
  135.8122  138.5957  163.3906 C   0  0  0  0  0  0  0  0  0  0  0  0
  136.2179  138.8425  165.0603 Cl  0  0  0  0  0  0  0  0  0  0  0  0
  136.3743  139.3934  162.4170 C   0  0  0  0  0  0  0  0  0  0  0  0
  136.0570  139.2064  161.0784 C   0  0  0  0  0  0  0  0  0  0  0  0
  135.1817  138.2270  160.7028 C   0  0  0  0  0  0  0  0  0  0  0  0
  134.6006  137.4067  161.6723 C   0  0  0  0  0  0  0  0  0  0  0  0
  126.6937  135.5729  161.4964 C   0  0  0  0  0  0  0  0  0  0  0  0
  125.3083  135.1566  161.6750 N   0  0  0  0  0  0  0  0  0  0  0  0
  125.4866  131.9008  161.3397 H   0  0  0  0  0  0  0  0  0  0  0  0
  125.4986  132.7325  159.7677 H   0  0  0  0  0  0  0  0  0  0  0  0
  127.8038  132.4969  160.4379 H   0  0  0  0  0  0  0  0  0  0  0  0
  127.4514  133.0972  162.0788 H   0  0  0  0  0  0  0  0  0  0  0  0
  129.2689  135.2869  161.3521 H   0  0  0  0  0  0  0  0  0  0  0  0
  128.0805  133.9476  158.3044 H   0  0  0  0  0  0  0  0  0  0  0  0
  130.1579  134.7928  156.6131 H   0  0  0  0  0  0  0  0  0  0  0  0
  128.5591  132.1322  156.6774 H   0  0  0  0  0  0  0  0  0  0  0  0
  128.7933  133.2594  155.2718 H   0  0  0  0  0  0  0  0  0  0  0  0
  131.1915  132.7669  155.1600 H   0  0  0  0  0  0  0  0  0  0  0  0
  130.7052  131.2023  155.9451 H   0  0  0  0  0  0  0  0  0  0  0  0
  131.9678  133.3463  157.4112 H   0  0  0  0  0  0  0  0  0  0  0  0
  130.7957  132.1934  158.1848 H   0  0  0  0  0  0  0  0  0  0  0  0
  131.0472  136.4543  160.8827 H   0  0  0  0  0  0  0  0  0  0  0  0
  131.3827  134.8124  161.4824 H   0  0  0  0  0  0  0  0  0  0  0  0
  133.4774  134.7561  160.1566 H   0  0  0  0  0  0  0  0  0  0  0  0
  133.1418  136.3980  159.5568 H   0  0  0  0  0  0  0  0  0  0  0  0
  132.7992  135.0880  163.1943 H   0  0  0  0  0  0  0  0  0  0  0  0
  137.0680  140.1719  162.6983 H   0  0  0  0  0  0  0  0  0  0  0  0
  136.5056  139.8404  160.3279 H   0  0  0  0  0  0  0  0  0  0  0  0
  134.9396  138.0878  159.6596 H   0  0  0  0  0  0  0  0  0  0  0  0
  127.1975  135.5725  162.4630 H   0  0  0  0  0  0  0  0  0  0  0  0
  126.7165  136.5808  161.0821 H   0  0  0  0  0  0  0  0  0  0  0  0
  124.6770  135.8110  162.0127 H   0  0  0  0  0  0  0  0  0  0  0  0
  1  2  2  0
  2 30  1  0
  2  3  1  0
  3  4  1  0
  3 31  1  0
  3 32  1  0
  4  5  1  0
  4 33  1  0
  4 34  1  0
  5  6  1  6
  5  7  1  0
  5 29  1  0
  7 35  1  0
  8  7  1  0
  8  9  1  0
  8 14  2  0
  9 10  1  0
  9 36  1  0
 10 13  1  0
 10 11  1  0
 10 37  1  0
 11 12  1  0
 11 38  1  0
 11 39  1  0
 12 13  1  0
 12 40  1  0
 12 41  1  0
 13 42  1  0
 13 43  1  0
 14 15  1  0
 14 16  1  0
 16 17  1  0
 16 44  1  0
 16 45  1  0
 17 18  1  0
 17 46  1  0
 17 47  1  0
 18 28  1  0
 18 19  2  0
 19 20  1  0
 19 48  1  0
 20 21  1  0
 20 22  1  0
 22 28  2  0
 22 23  1  0
 23 24  1  0
 23 25  2  0
 25 26  1  0
 25 49  1  0
 26 27  2  0
 26 50  1  0
 27 28  1  0
 27 51  1  0
 29 30  1  0
 29 52  1  0
 29 53  1  0
 30 54  1  0
M  CHG  1  14   1
M  END
>  <DOCK_score>  (1) 
-47.280876

>  <SMILES>  (1) 
O=C1CC[C@H](NC(NC2CCC2)=[NH+]CCc2c[nH]c3c(Cl)cccc23)CN1

$$$$
