CC(C)(C)n1cc([C@@H](Nc2[nH]cc(-c3ccc(Br)cc3)[nH+]2)C2=CCOCC2)cn1
     RDKit          3D

 56 59  0  0  1  0  0  0  0  0999 V2000
  131.0069  141.7146  162.4273 C   0  0  0  0  0  0  0  0  0  0  0  0
  130.2747  140.4575  162.9009 C   0  0  0  0  0  0  0  0  0  0  0  0
  128.7978  140.7840  163.1316 C   0  0  0  0  0  0  0  0  0  0  0  0
  130.8985  139.9658  164.2085 C   0  0  0  0  0  0  0  0  0  0  0  0
  130.3900  139.4117  161.8814 N   0  0  0  0  0  0  0  0  0  0  0  0
  129.8637  138.1714  161.9532 C   0  0  0  0  0  0  0  0  0  0  0  0
  130.1970  137.5154  160.8175 C   0  0  0  0  0  0  0  0  0  0  0  0
  129.8225  136.0976  160.4701 C   0  0  1  0  0  0  0  0  0  0  0  0
  128.7367  136.0040  160.4458 H   0  0  0  0  0  0  0  0  0  0  0  0
  130.3715  135.7557  159.1556 N   0  0  0  0  0  0  0  0  0  0  0  0
  130.1561  134.4967  158.6217 C   0  0  0  0  0  0  0  0  0  0  0  0
  129.4547  133.4931  159.2157 N   0  0  0  0  0  0  0  0  0  0  0  0
  129.0192  133.5309  160.0817 H   0  0  0  0  0  0  0  0  0  0  0  0
  129.4766  132.4167  158.3623 C   0  0  0  0  0  0  0  0  0  0  0  0
  130.1903  132.7932  157.2724 C   0  0  0  0  0  0  0  0  0  0  0  0
  130.4787  131.9525  156.0848 C   0  0  0  0  0  0  0  0  0  0  0  0
  130.0415  132.3514  154.8228 C   0  0  0  0  0  0  0  0  0  0  0  0
  130.3175  131.5686  153.7204 C   0  0  0  0  0  0  0  0  0  0  0  0
  131.0172  130.3833  153.8680 C   0  0  0  0  0  0  0  0  0  0  0  0
  131.3856  129.3122  152.3537 Br  0  0  0  0  0  0  0  0  0  0  0  0
  131.4487  129.9800  155.1196 C   0  0  0  0  0  0  0  0  0  0  0  0
  131.1829  130.7582  156.2277 C   0  0  0  0  0  0  0  0  0  0  0  0
  130.5940  134.0747  157.4606 N   0  0  0  0  0  0  0  0  0  0  0  0
  131.1223  134.5955  156.8356 H   0  0  0  0  0  0  0  0  0  0  0  0
  130.3843  135.1608  161.5083 C   0  0  0  0  0  0  0  0  0  0  0  0
  129.5634  134.4182  162.1897 C   0  0  0  0  0  0  0  0  0  0  0  0
  130.0219  133.4555  163.2480 C   0  0  0  0  0  0  0  0  0  0  0  0
  131.4288  133.2322  163.1353 O   0  0  0  0  0  0  0  0  0  0  0  0
  132.1846  134.4472  163.0576 C   0  0  0  0  0  0  0  0  0  0  0  0
  131.8727  135.1254  161.7205 C   0  0  0  0  0  0  0  0  0  0  0  0
  130.9453  138.3878  160.0205 C   0  0  0  0  0  0  0  0  0  0  0  0
  131.0617  139.5249  160.6572 N   0  0  0  0  0  0  0  0  0  0  0  0
  130.5625  142.0647  161.4957 H   0  0  0  0  0  0  0  0  0  0  0  0
  130.9210  142.4926  163.1858 H   0  0  0  0  0  0  0  0  0  0  0  0
  132.0591  141.4819  162.2630 H   0  0  0  0  0  0  0  0  0  0  0  0
  128.2760  139.8884  163.4690 H   0  0  0  0  0  0  0  0  0  0  0  0
  128.7118  141.5620  163.8901 H   0  0  0  0  0  0  0  0  0  0  0  0
  128.3533  141.1341  162.2000 H   0  0  0  0  0  0  0  0  0  0  0  0
  131.9506  139.7332  164.0443 H   0  0  0  0  0  0  0  0  0  0  0  0
  130.8126  140.7439  164.9672 H   0  0  0  0  0  0  0  0  0  0  0  0
  130.3768  139.0703  164.5460 H   0  0  0  0  0  0  0  0  0  0  0  0
  129.2828  137.7725  162.7718 H   0  0  0  0  0  0  0  0  0  0  0  0
  130.8860  136.4114  158.6593 H   0  0  0  0  0  0  0  0  0  0  0  0
  129.0176  131.4535  158.5295 H   0  0  0  0  0  0  0  0  0  0  0  0
  129.4916  133.2737  154.7073 H   0  0  0  0  0  0  0  0  0  0  0  0
  129.9834  131.8792  152.7415 H   0  0  0  0  0  0  0  0  0  0  0  0
  131.9939  129.0542  155.2293 H   0  0  0  0  0  0  0  0  0  0  0  0
  131.5202  130.4426  157.2039 H   0  0  0  0  0  0  0  0  0  0  0  0
  128.5060  134.4938  161.9835 H   0  0  0  0  0  0  0  0  0  0  0  0
  129.4952  132.5084  163.1311 H   0  0  0  0  0  0  0  0  0  0  0  0
  129.7997  133.8737  164.2298 H   0  0  0  0  0  0  0  0  0  0  0  0
  133.2494  134.2215  163.1151 H   0  0  0  0  0  0  0  0  0  0  0  0
  131.9045  135.1076  163.8783 H   0  0  0  0  0  0  0  0  0  0  0  0
  132.3414  134.5652  160.9115 H   0  0  0  0  0  0  0  0  0  0  0  0
  132.2623  136.1433  161.7306 H   0  0  0  0  0  0  0  0  0  0  0  0
  131.3557  138.1619  159.0475 H   0  0  0  0  0  0  0  0  0  0  0  0
  1  2  1  0
  1 33  1  0
  1 34  1  0
  1 35  1  0
  2  3  1  0
  2  4  1  0
  2  5  1  0
  3 36  1  0
  3 37  1  0
  3 38  1  0
  4 39  1  0
  4 40  1  0
  4 41  1  0
  5 32  1  0
  5  6  1  0
  6  7  2  0
  6 42  1  0
  7  8  1  0
  7 31  1  0
  8  9  1  6
  8 10  1  0
  8 25  1  0
 10 43  1  0
 11 10  1  0
 11 23  2  0
 11 12  1  0
 12 13  1  0
 12 14  1  0
 14 15  2  0
 14 44  1  0
 15 16  1  0
 15 23  1  0
 16 22  1  0
 16 17  2  0
 17 18  1  0
 17 45  1  0
 18 19  2  0
 18 46  1  0
 19 20  1  0
 19 21  1  0
 21 22  2  0
 21 47  1  0
 22 48  1  0
 23 24  1  0
 25 30  1  0
 25 26  2  0
 26 27  1  0
 26 49  1  0
 27 28  1  0
 27 50  1  0
 27 51  1  0
 28 29  1  0
 29 30  1  0
 29 52  1  0
 29 53  1  0
 30 54  1  0
 30 55  1  0
 31 32  2  0
 31 56  1  0
M  CHG  1  23   1
M  END
>  <DOCK_score>  (1) 
-56.140938

>  <SMILES>  (1) 
CC(C)(C)n1cc([C@@H](Nc2[nH]cc(-c3ccc(Br)cc3)[nH+]2)C2=CCOCC2)cn1

$$$$
