O=C1CC[C@@H]([NH+]=C(NCC2CC=CC2)N[C@H]2[C@@H]3CC=CC[C@@H]32)CN1
     RDKit          3D

 53 56  0  0  1  0  0  0  0  0999 V2000
  123.6758  134.5718  162.4784 O   0  0  0  0  0  0  0  0  0  0  0  0
  124.7468  134.3483  161.9552 C   0  0  0  0  0  0  0  0  0  0  0  0
  125.5959  133.2446  162.5175 C   0  0  0  0  0  0  0  0  0  0  0  0
  126.6583  132.8324  161.4955 C   0  0  0  0  0  0  0  0  0  0  0  0
  127.3494  134.0995  160.9771 C   0  0  1  0  0  0  0  0  0  0  0  0
  127.6983  134.6964  161.8197 H   0  0  0  0  0  0  0  0  0  0  0  0
  128.4873  133.7314  160.1308 N   0  0  0  0  0  0  0  0  0  0  0  0
  128.6958  132.7965  159.9783 H   0  0  0  0  0  0  0  0  0  0  0  0
  129.2193  134.6602  159.5829 C   0  0  0  0  0  0  0  0  0  0  0  0
  129.3705  135.8749  160.2087 N   0  0  0  0  0  0  0  0  0  0  0  0
  130.1934  136.9188  159.5929 C   0  0  0  0  0  0  0  0  0  0  0  0
  130.1953  138.1605  160.4868 C   0  0  0  0  0  0  0  0  0  0  0  0
  130.7938  139.3779  159.7446 C   0  0  0  0  0  0  0  0  0  0  0  0
  131.5784  140.1229  160.8004 C   0  0  0  0  0  0  0  0  0  0  0  0
  131.7933  139.3704  161.8449 C   0  0  0  0  0  0  0  0  0  0  0  0
  131.1890  137.9979  161.6605 C   0  0  0  0  0  0  0  0  0  0  0  0
  129.8401  134.4252  158.3788 N   0  0  0  0  0  0  0  0  0  0  0  0
  129.6788  133.1310  157.7117 C   0  0  1  0  0  0  0  0  0  0  0  0
  128.6549  132.8593  157.4550 H   0  0  0  0  0  0  0  0  0  0  0  0
  130.7869  132.6879  156.7543 C   0  0  2  0  0  0  0  0  0  0  0  0
  131.6371  133.3539  156.6070 H   0  0  0  0  0  0  0  0  0  0  0  0
  130.3679  131.8341  155.5469 C   0  0  0  0  0  0  0  0  0  0  0  0
  130.8658  130.4255  155.7597 C   0  0  0  0  0  0  0  0  0  0  0  0
  130.7294  129.8424  156.9247 C   0  0  0  0  0  0  0  0  0  0  0  0
  130.0714  130.5697  158.0715 C   0  0  0  0  0  0  0  0  0  0  0  0
  130.6261  132.0022  158.1234 C   0  0  2  0  0  0  0  0  0  0  0  0
  131.3685  132.2083  158.8945 H   0  0  0  0  0  0  0  0  0  0  0  0
  126.3413  134.9070  160.1584 C   0  0  0  0  0  0  0  0  0  0  0  0
  125.1098  135.0952  160.9152 N   0  0  0  0  0  0  0  0  0  0  0  0
  124.9660  132.3863  162.7512 H   0  0  0  0  0  0  0  0  0  0  0  0
  126.0847  133.5932  163.4273 H   0  0  0  0  0  0  0  0  0  0  0  0
  126.1851  132.3070  160.6659 H   0  0  0  0  0  0  0  0  0  0  0  0
  127.3926  132.1822  161.9706 H   0  0  0  0  0  0  0  0  0  0  0  0
  128.9324  136.0408  161.0581 H   0  0  0  0  0  0  0  0  0  0  0  0
  131.2139  136.5546  159.4745 H   0  0  0  0  0  0  0  0  0  0  0  0
  129.7836  137.1753  158.6158 H   0  0  0  0  0  0  0  0  0  0  0  0
  129.1916  138.3790  160.8514 H   0  0  0  0  0  0  0  0  0  0  0  0
  131.4547  139.0469  158.9435 H   0  0  0  0  0  0  0  0  0  0  0  0
  129.9987  140.0080  159.3462 H   0  0  0  0  0  0  0  0  0  0  0  0
  131.9164  141.1440  160.7030 H   0  0  0  0  0  0  0  0  0  0  0  0
  132.3328  139.6870  162.7253 H   0  0  0  0  0  0  0  0  0  0  0  0
  130.6624  137.6903  162.5640 H   0  0  0  0  0  0  0  0  0  0  0  0
  131.9625  137.2735  161.4056 H   0  0  0  0  0  0  0  0  0  0  0  0
  130.3847  135.1166  157.9711 H   0  0  0  0  0  0  0  0  0  0  0  0
  129.2813  131.8292  155.4612 H   0  0  0  0  0  0  0  0  0  0  0  0
  130.8050  132.2465  154.6375 H   0  0  0  0  0  0  0  0  0  0  0  0
  131.3381  129.8948  154.9463 H   0  0  0  0  0  0  0  0  0  0  0  0
  131.0900  128.8341  157.0652 H   0  0  0  0  0  0  0  0  0  0  0  0
  130.2948  130.0565  159.0068 H   0  0  0  0  0  0  0  0  0  0  0  0
  128.9931  130.6001  157.9157 H   0  0  0  0  0  0  0  0  0  0  0  0
  126.7692  135.8804  159.9188 H   0  0  0  0  0  0  0  0  0  0  0  0
  126.1185  134.3741  159.2342 H   0  0  0  0  0  0  0  0  0  0  0  0
  124.5131  135.8095  160.6420 H   0  0  0  0  0  0  0  0  0  0  0  0
  1  2  2  0
  2 29  1  0
  2  3  1  0
  3  4  1  0
  3 30  1  0
  3 31  1  0
  4  5  1  0
  4 32  1  0
  4 33  1  0
  5  6  1  1
  5  7  1  0
  5 28  1  0
  7  8  1  0
  9  7  2  0
  9 10  1  0
  9 17  1  0
 10 11  1  0
 10 34  1  0
 11 12  1  0
 11 35  1  0
 11 36  1  0
 12 16  1  0
 12 13  1  0
 12 37  1  0
 13 14  1  0
 13 38  1  0
 13 39  1  0
 14 15  2  0
 14 40  1  0
 15 16  1  0
 15 41  1  0
 16 42  1  0
 16 43  1  0
 17 18  1  0
 17 44  1  0
 18 19  1  6
 18 26  1  0
 18 20  1  0
 20 21  1  6
 20 26  1  0
 20 22  1  0
 22 23  1  0
 22 45  1  0
 22 46  1  0
 23 24  2  0
 23 47  1  0
 24 25  1  0
 24 48  1  0
 25 26  1  0
 25 49  1  0
 25 50  1  0
 26 27  1  1
 28 29  1  0
 28 51  1  0
 28 52  1  0
 29 53  1  0
M  CHG  1   7   1
M  END
>  <DOCK_score>  (1) 
-44.441265

>  <SMILES>  (1) 
O=C1CC[C@@H]([NH+]=C(NCC2CC=CC2)N[C@H]2[C@@H]3CC=CC[C@@H]32)CN1

$$$$
