[NH3+][C@@H](C(=O)Nc1cccc(O)c1)c1cccc(OC2C=CC(O)CC2)c1
     RDKit          3D

 49 51  0  0  1  0  0  0  0  0999 V2000
  130.6624  134.1949  157.5222 N   0  0  0  0  0  0  0  0  0  0  0  0
  131.5645  134.6138  157.3525 H   0  0  0  0  0  0  0  0  0  0  0  0
  130.7708  133.1987  157.6393 H   0  0  0  0  0  0  0  0  0  0  0  0
  130.0540  134.3772  156.7382 H   0  0  0  0  0  0  0  0  0  0  0  0
  130.0768  134.7703  158.7404 C   0  0  1  0  0  0  0  0  0  0  0  0
  129.9597  135.8465  158.6139 H   0  0  0  0  0  0  0  0  0  0  0  0
  128.7294  134.1447  158.9940 C   0  0  0  0  0  0  0  0  0  0  0  0
  128.2993  133.3024  158.2347 O   0  0  0  0  0  0  0  0  0  0  0  0
  128.0025  134.5211  160.0646 N   0  0  0  0  0  0  0  0  0  0  0  0
  126.7515  133.9402  160.3000 C   0  0  0  0  0  0  0  0  0  0  0  0
  126.5025  132.6357  159.8921 C   0  0  0  0  0  0  0  0  0  0  0  0
  125.2679  132.0620  160.1253 C   0  0  0  0  0  0  0  0  0  0  0  0
  124.2790  132.7818  160.7689 C   0  0  0  0  0  0  0  0  0  0  0  0
  124.5201  134.0871  161.1733 C   0  0  0  0  0  0  0  0  0  0  0  0
  123.5451  134.7954  161.8014 O   0  0  0  0  0  0  0  0  0  0  0  0
  125.7581  134.6662  160.9416 C   0  0  0  0  0  0  0  0  0  0  0  0
  130.9855  134.4980  159.9115 C   0  0  0  0  0  0  0  0  0  0  0  0
  130.8249  133.3444  160.6569 C   0  0  0  0  0  0  0  0  0  0  0  0
  131.6600  133.0895  161.7288 C   0  0  0  0  0  0  0  0  0  0  0  0
  132.6505  133.9922  162.0643 C   0  0  0  0  0  0  0  0  0  0  0  0
  132.8102  135.1528  161.3214 C   0  0  0  0  0  0  0  0  0  0  0  0
  133.7841  136.0421  161.6491 O   0  0  0  0  0  0  0  0  0  0  0  0
  133.7248  136.6169  162.9562 C   0  0  1  0  0  0  0  0  0  0  0  0
  135.1157  136.9250  163.4277 C   0  0  0  0  0  0  0  0  0  0  0  0
  135.6301  138.1127  163.4423 C   0  0  0  0  0  0  0  0  0  0  0  0
  134.9040  139.3489  162.9987 C   0  0  1  0  0  0  0  0  0  0  0  0
  135.7844  140.1615  162.2197 O   0  0  0  0  0  0  0  0  0  0  0  0
  133.6845  138.9700  162.1558 C   0  0  0  0  0  0  0  0  0  0  0  0
  132.8910  137.8991  162.9091 C   0  0  0  0  0  0  0  0  0  0  0  0
  131.9743  135.4038  160.2428 C   0  0  0  0  0  0  0  0  0  0  0  0
  128.3465  135.1948  160.6719 H   0  0  0  0  0  0  0  0  0  0  0  0
  127.2750  132.0697  159.3926 H   0  0  0  0  0  0  0  0  0  0  0  0
  125.0763  131.0476  159.8078 H   0  0  0  0  0  0  0  0  0  0  0  0
  123.3161  132.3291  160.9538 H   0  0  0  0  0  0  0  0  0  0  0  0
  123.8064  135.6941  162.0447 H   0  0  0  0  0  0  0  0  0  0  0  0
  125.9490  135.6806  161.2594 H   0  0  0  0  0  0  0  0  0  0  0  0
  130.0485  132.6395  160.3988 H   0  0  0  0  0  0  0  0  0  0  0  0
  131.5352  132.1858  162.3070 H   0  0  0  0  0  0  0  0  0  0  0  0
  133.3003  133.7945  162.9040 H   0  0  0  0  0  0  0  0  0  0  0  0
  133.2595  135.9084  163.6415 H   0  0  0  0  0  0  0  0  0  0  0  0
  135.7254  136.1048  163.7769 H   0  0  0  0  0  0  0  0  0  0  0  0
  136.6448  138.2208  163.7960 H   0  0  0  0  0  0  0  0  0  0  0  0
  134.5757  139.9088  163.8744 H   0  0  0  0  0  0  0  0  0  0  0  0
  136.5767  140.4492  162.6937 H   0  0  0  0  0  0  0  0  0  0  0  0
  133.0590  139.8491  162.0005 H   0  0  0  0  0  0  0  0  0  0  0  0
  134.0121  138.5787  161.1926 H   0  0  0  0  0  0  0  0  0  0  0  0
  131.9532  137.7075  162.3876 H   0  0  0  0  0  0  0  0  0  0  0  0
  132.6864  138.2406  163.9237 H   0  0  0  0  0  0  0  0  0  0  0  0
  132.0968  136.3065  159.6626 H   0  0  0  0  0  0  0  0  0  0  0  0
  1  2  1  0
  1  3  1  0
  1  4  1  0
  1  5  1  0
  5  6  1  6
  5  7  1  0
  5 17  1  0
  7  8  2  0
  7  9  1  0
  9 10  1  0
  9 31  1  0
 10 16  1  0
 10 11  2  0
 11 12  1  0
 11 32  1  0
 12 13  2  0
 12 33  1  0
 13 14  1  0
 13 34  1  0
 14 15  1  0
 14 16  2  0
 15 35  1  0
 16 36  1  0
 17 30  1  0
 17 18  2  0
 18 19  1  0
 18 37  1  0
 19 20  2  0
 19 38  1  0
 20 21  1  0
 20 39  1  0
 21 22  1  0
 21 30  2  0
 22 23  1  0
 23 29  1  0
 23 24  1  0
 23 40  1  1
 24 25  2  0
 24 41  1  0
 25 26  1  0
 25 42  1  0
 26 27  1  0
 26 28  1  0
 26 43  1  1
 27 44  1  0
 28 29  1  0
 28 45  1  0
 28 46  1  0
 29 47  1  0
 29 48  1  0
 30 49  1  0
M  CHG  1   1   1
M  END
>  <DOCK_score>  (1) 
-43.251335

>  <SMILES>  (1) 
[NH3+][C@@H](C(=O)Nc1cccc(O)c1)c1cccc(OC2C=CC(O)CC2)c1

$$$$
