Cc1ccccc1N1Cc2cccc(N3CC[NH+]([C@@H](c4ccccc4)c4ccccc4Cl)CC3)c2C1
     RDKit          3D

 69 74  0  0  1  0  0  0  0  0999 V2000
  136.2034  134.2754  166.5762 C   0  0  0  0  0  0  0  0  0  0  0  0
  135.2009  135.3041  167.0319 C   0  0  0  0  0  0  0  0  0  0  0  0
  134.8028  135.3434  168.3540 C   0  0  0  0  0  0  0  0  0  0  0  0
  133.8788  136.2833  168.7718 C   0  0  0  0  0  0  0  0  0  0  0  0
  133.3539  137.1902  167.8692 C   0  0  0  0  0  0  0  0  0  0  0  0
  133.7517  137.1603  166.5474 C   0  0  0  0  0  0  0  0  0  0  0  0
  134.6801  136.2173  166.1241 C   0  0  0  0  0  0  0  0  0  0  0  0
  135.0844  136.1837  164.7875 N   0  0  0  0  0  0  0  0  0  0  0  0
  135.6045  137.5014  164.3574 C   0  0  0  0  0  0  0  0  0  0  0  0
  135.2313  137.6312  162.8980 C   0  0  0  0  0  0  0  0  0  0  0  0
  135.7004  138.4633  161.8987 C   0  0  0  0  0  0  0  0  0  0  0  0
  135.1792  138.3779  160.6209 C   0  0  0  0  0  0  0  0  0  0  0  0
  134.1915  137.4551  160.3363 C   0  0  0  0  0  0  0  0  0  0  0  0
  133.7132  136.6209  161.3387 C   0  0  0  0  0  0  0  0  0  0  0  0
  132.7101  135.6912  161.0559 N   0  0  0  0  0  0  0  0  0  0  0  0
  131.4653  136.3639  160.6582 C   0  0  0  0  0  0  0  0  0  0  0  0
  130.3775  135.3153  160.4155 C   0  0  0  0  0  0  0  0  0  0  0  0
  130.8141  134.3920  159.3598 N   0  0  0  0  0  0  0  0  0  0  0  0
  130.9906  134.9100  158.5121 H   0  0  0  0  0  0  0  0  0  0  0  0
  129.7619  133.3966  159.1146 C   0  0  1  0  0  0  0  0  0  0  0  0
  129.5703  132.8373  160.0303 H   0  0  0  0  0  0  0  0  0  0  0  0
  128.4999  134.0962  158.6798 C   0  0  0  0  0  0  0  0  0  0  0  0
  127.2673  133.5412  158.9690 C   0  0  0  0  0  0  0  0  0  0  0  0
  126.1097  134.1849  158.5737 C   0  0  0  0  0  0  0  0  0  0  0  0
  126.1848  135.3792  157.8816 C   0  0  0  0  0  0  0  0  0  0  0  0
  127.4174  135.9316  157.5882 C   0  0  0  0  0  0  0  0  0  0  0  0
  128.5750  135.2899  157.9868 C   0  0  0  0  0  0  0  0  0  0  0  0
  130.2096  132.4490  158.0316 C   0  0  0  0  0  0  0  0  0  0  0  0
  130.5125  132.9319  156.7722 C   0  0  0  0  0  0  0  0  0  0  0  0
  130.9227  132.0629  155.7788 C   0  0  0  0  0  0  0  0  0  0  0  0
  131.0301  130.7101  156.0439 C   0  0  0  0  0  0  0  0  0  0  0  0
  130.7279  130.2262  157.3025 C   0  0  0  0  0  0  0  0  0  0  0  0
  130.3228  131.0965  158.2991 C   0  0  0  0  0  0  0  0  0  0  0  0
  129.9499  130.4903  159.8826 Cl  0  0  0  0  0  0  0  0  0  0  0  0
  132.0445  133.7098  159.7817 C   0  0  0  0  0  0  0  0  0  0  0  0
  133.1461  134.7450  160.0193 C   0  0  0  0  0  0  0  0  0  0  0  0
  134.2381  136.7094  162.6211 C   0  0  0  0  0  0  0  0  0  0  0  0
  133.9307  135.9476  163.8900 C   0  0  0  0  0  0  0  0  0  0  0  0
  137.2107  134.6781  166.6816 H   0  0  0  0  0  0  0  0  0  0  0  0
  136.1054  133.3774  167.1862 H   0  0  0  0  0  0  0  0  0  0  0  0
  136.0191  134.0266  165.5311 H   0  0  0  0  0  0  0  0  0  0  0  0
  135.2107  134.6366  169.0613 H   0  0  0  0  0  0  0  0  0  0  0  0
  133.5659  136.3089  169.8051 H   0  0  0  0  0  0  0  0  0  0  0  0
  132.6323  137.9232  168.1988 H   0  0  0  0  0  0  0  0  0  0  0  0
  133.3420  137.8693  165.8431 H   0  0  0  0  0  0  0  0  0  0  0  0
  136.6878  137.5347  164.4734 H   0  0  0  0  0  0  0  0  0  0  0  0
  135.1385  138.2978  164.9375 H   0  0  0  0  0  0  0  0  0  0  0  0
  136.4761  139.1826  162.1168 H   0  0  0  0  0  0  0  0  0  0  0  0
  135.5481  139.0301  159.8432 H   0  0  0  0  0  0  0  0  0  0  0  0
  133.7884  137.3855  159.3369 H   0  0  0  0  0  0  0  0  0  0  0  0
  131.6347  136.9309  159.7428 H   0  0  0  0  0  0  0  0  0  0  0  0
  131.1479  137.0402  161.4518 H   0  0  0  0  0  0  0  0  0  0  0  0
  129.4572  135.8113  160.1066 H   0  0  0  0  0  0  0  0  0  0  0  0
  130.1987  134.7578  161.3348 H   0  0  0  0  0  0  0  0  0  0  0  0
  127.2087  132.6064  159.5066 H   0  0  0  0  0  0  0  0  0  0  0  0
  125.1465  133.7531  158.8026 H   0  0  0  0  0  0  0  0  0  0  0  0
  125.2803  135.8804  157.5697 H   0  0  0  0  0  0  0  0  0  0  0  0
  127.4762  136.8645  157.0472 H   0  0  0  0  0  0  0  0  0  0  0  0
  129.5381  135.7214  157.7574 H   0  0  0  0  0  0  0  0  0  0  0  0
  130.4285  133.9884  156.5645 H   0  0  0  0  0  0  0  0  0  0  0  0
  131.1590  132.4406  154.7949 H   0  0  0  0  0  0  0  0  0  0  0  0
  131.3499  130.0315  155.2669 H   0  0  0  0  0  0  0  0  0  0  0  0
  130.8122  129.1696  157.5096 H   0  0  0  0  0  0  0  0  0  0  0  0
  131.8571  133.1603  160.7043 H   0  0  0  0  0  0  0  0  0  0  0  0
  132.3601  133.0154  159.0030 H   0  0  0  0  0  0  0  0  0  0  0  0
  134.0550  134.2402  160.3467 H   0  0  0  0  0  0  0  0  0  0  0  0
  133.3433  135.2852  159.0933 H   0  0  0  0  0  0  0  0  0  0  0  0
  133.0158  136.3273  164.3450 H   0  0  0  0  0  0  0  0  0  0  0  0
  133.8319  134.8834  163.6759 H   0  0  0  0  0  0  0  0  0  0  0  0
  1  2  1  0
  1 39  1  0
  1 40  1  0
  1 41  1  0
  2  7  2  0
  2  3  1  0
  3  4  2  0
  3 42  1  0
  4  5  1  0
  4 43  1  0
  5  6  2  0
  5 44  1  0
  6  7  1  0
  6 45  1  0
  7  8  1  0
  8 38  1  0
  8  9  1  0
  9 10  1  0
  9 46  1  0
  9 47  1  0
 10 37  2  0
 10 11  1  0
 11 12  2  0
 11 48  1  0
 12 13  1  0
 12 49  1  0
 13 14  2  0
 13 50  1  0
 14 15  1  0
 14 37  1  0
 15 36  1  0
 15 16  1  0
 16 17  1  0
 16 51  1  0
 16 52  1  0
 17 18  1  0
 17 53  1  0
 17 54  1  0
 18 19  1  0
 18 20  1  0
 18 35  1  0
 20 21  1  1
 20 22  1  0
 20 28  1  0
 22 27  1  0
 22 23  2  0
 23 24  1  0
 23 55  1  0
 24 25  2  0
 24 56  1  0
 25 26  1  0
 25 57  1  0
 26 27  2  0
 26 58  1  0
 27 59  1  0
 28 33  1  0
 28 29  2  0
 29 30  1  0
 29 60  1  0
 30 31  2  0
 30 61  1  0
 31 32  1  0
 31 62  1  0
 32 33  2  0
 32 63  1  0
 33 34  1  0
 35 36  1  0
 35 64  1  0
 35 65  1  0
 36 66  1  0
 36 67  1  0
 37 38  1  0
 38 68  1  0
 38 69  1  0
M  CHG  1  18   1
M  END
>  <DOCK_score>  (1) 
-58.014549

>  <SMILES>  (1) 
Cc1ccccc1N1Cc2cccc(N3CC[NH+]([C@@H](c4ccccc4)c4ccccc4Cl)CC3)c2C1

$$$$
