Cc1cccc(N2CC[NH+]([C@H](c3ccccc3)c3cccc(NC4=CCC4)c3)CC2)c1C
     RDKit          3D

 66 70  0  0  1  0  0  0  0  0999 V2000
  135.9100  140.9508  163.0108 C   0  0  0  0  0  0  0  0  0  0  0  0
  135.2802  140.3547  161.7782 C   0  0  0  0  0  0  0  0  0  0  0  0
  135.5648  140.8838  160.5325 C   0  0  0  0  0  0  0  0  0  0  0  0
  134.9888  140.3403  159.3990 C   0  0  0  0  0  0  0  0  0  0  0  0
  134.1273  139.2662  159.5076 C   0  0  0  0  0  0  0  0  0  0  0  0
  133.8393  138.7324  160.7571 C   0  0  0  0  0  0  0  0  0  0  0  0
  132.9681  137.6466  160.8705 N   0  0  0  0  0  0  0  0  0  0  0  0
  131.6158  138.0071  160.4215 C   0  0  0  0  0  0  0  0  0  0  0  0
  130.6809  136.8116  160.6172 C   0  0  0  0  0  0  0  0  0  0  0  0
  131.1824  135.6663  159.8461 N   0  0  0  0  0  0  0  0  0  0  0  0
  131.2286  135.9132  158.8689 H   0  0  0  0  0  0  0  0  0  0  0  0
  130.2749  134.5243  160.0199 C   0  0  2  0  0  0  0  0  0  0  0  0
  130.2245  134.2576  161.0756 H   0  0  0  0  0  0  0  0  0  0  0  0
  130.7891  133.3492  159.2290 C   0  0  0  0  0  0  0  0  0  0  0  0
  130.3851  133.1675  157.9195 C   0  0  0  0  0  0  0  0  0  0  0  0
  130.8602  132.0919  157.1926 C   0  0  0  0  0  0  0  0  0  0  0  0
  131.7316  131.1926  157.7780 C   0  0  0  0  0  0  0  0  0  0  0  0
  132.1317  131.3717  159.0891 C   0  0  0  0  0  0  0  0  0  0  0  0
  131.6601  132.4496  159.8146 C   0  0  0  0  0  0  0  0  0  0  0  0
  128.8994  134.8966  159.5297 C   0  0  0  0  0  0  0  0  0  0  0  0
  128.7561  135.8173  158.5075 C   0  0  0  0  0  0  0  0  0  0  0  0
  127.4960  136.1611  158.0539 C   0  0  0  0  0  0  0  0  0  0  0  0
  126.3757  135.5825  158.6178 C   0  0  0  0  0  0  0  0  0  0  0  0
  126.5157  134.6614  159.6482 C   0  0  0  0  0  0  0  0  0  0  0  0
  125.3844  134.0776  160.2238 N   0  0  0  0  0  0  0  0  0  0  0  0
  125.4574  132.7945  160.7522 C   0  0  0  0  0  0  0  0  0  0  0  0
  126.1867  131.7482  160.4566 C   0  0  0  0  0  0  0  0  0  0  0  0
  125.5788  130.8893  161.5237 C   0  0  0  0  0  0  0  0  0  0  0  0
  124.7345  132.1082  161.8712 C   0  0  0  0  0  0  0  0  0  0  0  0
  127.7835  134.3179  160.1012 C   0  0  0  0  0  0  0  0  0  0  0  0
  132.5234  135.3026  160.3226 C   0  0  0  0  0  0  0  0  0  0  0  0
  133.4736  136.4856  160.1244 C   0  0  0  0  0  0  0  0  0  0  0  0
  134.4153  139.2845  161.8944 C   0  0  0  0  0  0  0  0  0  0  0  0
  134.1011  138.7126  163.2527 C   0  0  0  0  0  0  0  0  0  0  0  0
  135.2681  141.7404  163.4010 H   0  0  0  0  0  0  0  0  0  0  0  0
  136.0330  140.1754  163.7671 H   0  0  0  0  0  0  0  0  0  0  0  0
  136.8844  141.3673  162.7557 H   0  0  0  0  0  0  0  0  0  0  0  0
  136.2381  141.7236  160.4448 H   0  0  0  0  0  0  0  0  0  0  0  0
  135.2131  140.7560  158.4277 H   0  0  0  0  0  0  0  0  0  0  0  0
  133.6776  138.8421  158.6219 H   0  0  0  0  0  0  0  0  0  0  0  0
  131.6433  138.2783  159.3661 H   0  0  0  0  0  0  0  0  0  0  0  0
  131.2522  138.8526  161.0053 H   0  0  0  0  0  0  0  0  0  0  0  0
  129.6807  137.0722  160.2716 H   0  0  0  0  0  0  0  0  0  0  0  0
  130.6432  136.5492  161.6744 H   0  0  0  0  0  0  0  0  0  0  0  0
  129.7012  133.8678  157.4633 H   0  0  0  0  0  0  0  0  0  0  0  0
  130.5479  131.9523  156.1681 H   0  0  0  0  0  0  0  0  0  0  0  0
  132.1001  130.3506  157.2112 H   0  0  0  0  0  0  0  0  0  0  0  0
  132.8125  130.6691  159.5466 H   0  0  0  0  0  0  0  0  0  0  0  0
  131.9725  132.5893  160.8391 H   0  0  0  0  0  0  0  0  0  0  0  0
  129.6306  136.2683  158.0622 H   0  0  0  0  0  0  0  0  0  0  0  0
  127.3878  136.8798  157.2550 H   0  0  0  0  0  0  0  0  0  0  0  0
  125.3919  135.8486  158.2603 H   0  0  0  0  0  0  0  0  0  0  0  0
  124.5492  134.5696  160.2584 H   0  0  0  0  0  0  0  0  0  0  0  0
  126.9494  131.5690  159.7133 H   0  0  0  0  0  0  0  0  0  0  0  0
  125.0042  130.0477  161.1368 H   0  0  0  0  0  0  0  0  0  0  0  0
  126.2781  130.6022  162.3090 H   0  0  0  0  0  0  0  0  0  0  0  0
  124.9487  132.5259  162.8550 H   0  0  0  0  0  0  0  0  0  0  0  0
  123.6686  131.9718  161.6882 H   0  0  0  0  0  0  0  0  0  0  0  0
  127.8961  133.5989  160.8990 H   0  0  0  0  0  0  0  0  0  0  0  0
  132.4761  135.0479  161.3814 H   0  0  0  0  0  0  0  0  0  0  0  0
  132.8890  134.4444  159.7586 H   0  0  0  0  0  0  0  0  0  0  0  0
  133.5316  136.7317  159.0642 H   0  0  0  0  0  0  0  0  0  0  0  0
  134.4653  136.2210  160.4915 H   0  0  0  0  0  0  0  0  0  0  0  0
  134.8193  137.9285  163.4919 H   0  0  0  0  0  0  0  0  0  0  0  0
  134.1618  139.5018  164.0022 H   0  0  0  0  0  0  0  0  0  0  0  0
  133.0948  138.2940  163.2467 H   0  0  0  0  0  0  0  0  0  0  0  0
  1  2  1  0
  1 35  1  0
  1 36  1  0
  1 37  1  0
  2 33  2  0
  2  3  1  0
  3  4  2  0
  3 38  1  0
  4  5  1  0
  4 39  1  0
  5  6  2  0
  5 40  1  0
  6  7  1  0
  6 33  1  0
  7 32  1  0
  7  8  1  0
  8  9  1  0
  8 41  1  0
  8 42  1  0
  9 10  1  0
  9 43  1  0
  9 44  1  0
 10 11  1  0
 10 12  1  0
 10 31  1  0
 12 13  1  1
 12 14  1  0
 12 20  1  0
 14 19  1  0
 14 15  2  0
 15 16  1  0
 15 45  1  0
 16 17  2  0
 16 46  1  0
 17 18  1  0
 17 47  1  0
 18 19  2  0
 18 48  1  0
 19 49  1  0
 20 30  1  0
 20 21  2  0
 21 22  1  0
 21 50  1  0
 22 23  2  0
 22 51  1  0
 23 24  1  0
 23 52  1  0
 24 25  1  0
 24 30  2  0
 25 26  1  0
 25 53  1  0
 26 29  1  0
 26 27  2  0
 27 28  1  0
 27 54  1  0
 28 29  1  0
 28 55  1  0
 28 56  1  0
 29 57  1  0
 29 58  1  0
 30 59  1  0
 31 32  1  0
 31 60  1  0
 31 61  1  0
 32 62  1  0
 32 63  1  0
 33 34  1  0
 34 64  1  0
 34 65  1  0
 34 66  1  0
M  CHG  1  10   1
M  END
>  <DOCK_score>  (1) 
-58.96711

>  <SMILES>  (1) 
Cc1cccc(N2CC[NH+]([C@H](c3ccccc3)c3cccc(NC4=CCC4)c3)CC2)c1C

$$$$
