Nc1ccc(-c2c[nH]c(Nc3cc(O)ccc3Nc3ccc(-c4nc5ccccc5[nH]4)cc3)[nH+]2)cc1
     RDKit          3D

 60 65  0  0  1  0  0  0  0  0999 V2000
  131.0942  129.5773  152.2476 N   0  0  0  0  0  0  0  0  0  0  0  0
  130.8278  130.3467  153.3828 C   0  0  0  0  0  0  0  0  0  0  0  0
  130.0959  131.5227  153.2678 C   0  0  0  0  0  0  0  0  0  0  0  0
  129.8318  132.2838  154.3870 C   0  0  0  0  0  0  0  0  0  0  0  0
  130.2993  131.8728  155.6343 C   0  0  0  0  0  0  0  0  0  0  0  0
  130.0169  132.6902  156.8397 C   0  0  0  0  0  0  0  0  0  0  0  0
  129.3296  132.2842  157.9360 C   0  0  0  0  0  0  0  0  0  0  0  0
  129.3030  133.3477  158.8063 N   0  0  0  0  0  0  0  0  0  0  0  0
  128.8829  133.3646  159.6805 H   0  0  0  0  0  0  0  0  0  0  0  0
  129.9756  134.3727  158.2150 C   0  0  0  0  0  0  0  0  0  0  0  0
  130.1775  135.6282  158.7638 N   0  0  0  0  0  0  0  0  0  0  0  0
  129.6689  135.9271  160.0335 C   0  0  0  0  0  0  0  0  0  0  0  0
  128.3052  135.8474  160.2724 C   0  0  0  0  0  0  0  0  0  0  0  0
  127.8038  136.1496  161.5292 C   0  0  0  0  0  0  0  0  0  0  0  0
  126.4659  136.0773  161.7618 O   0  0  0  0  0  0  0  0  0  0  0  0
  128.6650  136.5257  162.5497 C   0  0  0  0  0  0  0  0  0  0  0  0
  130.0256  136.6009  162.3174 C   0  0  0  0  0  0  0  0  0  0  0  0
  130.5334  136.3005  161.0625 C   0  0  0  0  0  0  0  0  0  0  0  0
  131.9132  136.3776  160.8267 N   0  0  0  0  0  0  0  0  0  0  0  0
  132.6925  137.2844  161.5419 C   0  0  0  0  0  0  0  0  0  0  0  0
  133.7371  136.8254  162.3382 C   0  0  0  0  0  0  0  0  0  0  0  0
  134.5095  137.7196  163.0459 C   0  0  0  0  0  0  0  0  0  0  0  0
  134.2428  139.0882  162.9639 C   0  0  0  0  0  0  0  0  0  0  0  0
  135.0696  140.0499  163.7219 C   0  0  0  0  0  0  0  0  0  0  0  0
  135.7805  141.0158  163.1914 N   0  0  0  0  0  0  0  0  0  0  0  0
  136.4141  141.7057  164.1712 C   0  0  0  0  0  0  0  0  0  0  0  0
  137.2781  142.8055  164.1669 C   0  0  0  0  0  0  0  0  0  0  0  0
  137.7684  143.2906  165.3460 C   0  0  0  0  0  0  0  0  0  0  0  0
  137.4185  142.7030  166.5535 C   0  0  0  0  0  0  0  0  0  0  0  0
  136.5677  141.6178  166.5822 C   0  0  0  0  0  0  0  0  0  0  0  0
  136.0553  141.1136  165.3950 C   0  0  0  0  0  0  0  0  0  0  0  0
  135.2092  140.0666  165.0839 N   0  0  0  0  0  0  0  0  0  0  0  0
  134.7893  139.4594  165.7130 H   0  0  0  0  0  0  0  0  0  0  0  0
  133.1896  139.5455  162.1686 C   0  0  0  0  0  0  0  0  0  0  0  0
  132.4243  138.6473  161.4587 C   0  0  0  0  0  0  0  0  0  0  0  0
  130.3960  133.9772  157.0379 N   0  0  0  0  0  0  0  0  0  0  0  0
  130.8996  134.5182  156.4096 H   0  0  0  0  0  0  0  0  0  0  0  0
  131.0374  130.6954  155.7465 C   0  0  0  0  0  0  0  0  0  0  0  0
  131.2949  129.9351  154.6254 C   0  0  0  0  0  0  0  0  0  0  0  0
  130.7683  129.8638  151.3801 H   0  0  0  0  0  0  0  0  0  0  0  0
  131.6048  128.7565  152.3270 H   0  0  0  0  0  0  0  0  0  0  0  0
  129.7341  131.8408  152.3014 H   0  0  0  0  0  0  0  0  0  0  0  0
  129.2632  133.1974  154.2972 H   0  0  0  0  0  0  0  0  0  0  0  0
  128.8875  131.3118  158.0947 H   0  0  0  0  0  0  0  0  0  0  0  0
  130.6711  136.3003  158.2684 H   0  0  0  0  0  0  0  0  0  0  0  0
  127.6338  135.5546  159.4786 H   0  0  0  0  0  0  0  0  0  0  0  0
  125.9469  135.8074  160.9920 H   0  0  0  0  0  0  0  0  0  0  0  0
  128.2716  136.7601  163.5278 H   0  0  0  0  0  0  0  0  0  0  0  0
  130.6935  136.8941  163.1138 H   0  0  0  0  0  0  0  0  0  0  0  0
  132.3253  135.7996  160.1656 H   0  0  0  0  0  0  0  0  0  0  0  0
  133.9427  135.7670  162.4011 H   0  0  0  0  0  0  0  0  0  0  0  0
  135.3200  137.3628  163.6639 H   0  0  0  0  0  0  0  0  0  0  0  0
  137.5571  143.2706  163.2330 H   0  0  0  0  0  0  0  0  0  0  0  0
  138.4353  144.1402  165.3385 H   0  0  0  0  0  0  0  0  0  0  0  0
  137.8149  143.0982  167.4770 H   0  0  0  0  0  0  0  0  0  0  0  0
  136.2990  141.1643  167.5248 H   0  0  0  0  0  0  0  0  0  0  0  0
  132.9783  140.6029  162.1072 H   0  0  0  0  0  0  0  0  0  0  0  0
  131.6126  139.0007  160.8400 H   0  0  0  0  0  0  0  0  0  0  0  0
  131.4038  130.3773  156.7113 H   0  0  0  0  0  0  0  0  0  0  0  0
  131.8634  129.0210  154.7124 H   0  0  0  0  0  0  0  0  0  0  0  0
  1  2  1  0
  1 40  1  0
  1 41  1  0
  2 39  2  0
  2  3  1  0
  3  4  2  0
  3 42  1  0
  4  5  1  0
  4 43  1  0
  5  6  1  0
  5 38  2  0
  6 36  1  0
  6  7  2  0
  7  8  1  0
  7 44  1  0
  8  9  1  0
  8 10  1  0
 10 11  1  0
 10 36  2  0
 11 12  1  0
 11 45  1  0
 12 18  1  0
 12 13  2  0
 13 14  1  0
 13 46  1  0
 14 15  1  0
 14 16  2  0
 15 47  1  0
 16 17  1  0
 16 48  1  0
 17 18  2  0
 17 49  1  0
 18 19  1  0
 19 20  1  0
 19 50  1  0
 20 35  1  0
 20 21  2  0
 21 22  1  0
 21 51  1  0
 22 23  2  0
 22 52  1  0
 23 24  1  0
 23 34  1  0
 24 32  1  0
 24 25  2  0
 25 26  1  0
 26 31  2  0
 26 27  1  0
 27 28  2  0
 27 53  1  0
 28 29  1  0
 28 54  1  0
 29 30  2  0
 29 55  1  0
 30 31  1  0
 30 56  1  0
 31 32  1  0
 32 33  1  0
 34 35  2  0
 34 57  1  0
 35 58  1  0
 36 37  1  0
 38 39  1  0
 38 59  1  0
 39 60  1  0
M  CHG  1  36   1
M  END
>  <DOCK_score>  (1) 
-63.332863

>  <SMILES>  (1) 
Nc1ccc(-c2c[nH]c(Nc3cc(O)ccc3Nc3ccc(-c4nc5ccccc5[nH]4)cc3)[nH+]2)cc1

$$$$
