Cc1[nH]c(CNc2ccc(NCc3cn[nH]c3)cc2C(N)=O)[nH+]c1C
     RDKit          3D

 47 49  0  0  1  0  0  0  0  0999 V2000
  130.5071  130.0015  157.8324 C   0  0  0  0  0  0  0  0  0  0  0  0
  130.2502  131.3483  157.2071 C   0  0  0  0  0  0  0  0  0  0  0  0
  129.6545  132.4041  157.7996 N   0  0  0  0  0  0  0  0  0  0  0  0
  129.3142  132.4292  158.7076 H   0  0  0  0  0  0  0  0  0  0  0  0
  129.6141  133.3995  156.9284 C   0  0  0  0  0  0  0  0  0  0  0  0
  129.0292  134.7648  157.1833 C   0  0  0  0  0  0  0  0  0  0  0  0
  128.5080  134.8252  158.5510 N   0  0  0  0  0  0  0  0  0  0  0  0
  129.3327  135.2401  159.5921 C   0  0  0  0  0  0  0  0  0  0  0  0
  130.7134  135.1991  159.4459 C   0  0  0  0  0  0  0  0  0  0  0  0
  131.5318  135.6092  160.4776 C   0  0  0  0  0  0  0  0  0  0  0  0
  130.9825  136.0673  161.6714 C   0  0  0  0  0  0  0  0  0  0  0  0
  131.8221  136.4813  162.7125 N   0  0  0  0  0  0  0  0  0  0  0  0
  133.2110  136.8524  162.4301 C   0  0  0  0  0  0  0  0  0  0  0  0
  133.2356  138.0068  161.4617 C   0  0  0  0  0  0  0  0  0  0  0  0
  134.0613  138.1211  160.3386 C   0  0  0  0  0  0  0  0  0  0  0  0
  133.7898  139.2554  159.7455 N   0  0  0  0  0  0  0  0  0  0  0  0
  132.7879  139.9039  160.4789 N   0  0  0  0  0  0  0  0  0  0  0  0
  132.3943  140.7654  160.2696 H   0  0  0  0  0  0  0  0  0  0  0  0
  132.4628  139.1157  161.5250 C   0  0  0  0  0  0  0  0  0  0  0  0
  129.6093  136.1093  161.8346 C   0  0  0  0  0  0  0  0  0  0  0  0
  128.7722  135.7007  160.7928 C   0  0  0  0  0  0  0  0  0  0  0  0
  127.3077  135.7473  160.9571 C   0  0  0  0  0  0  0  0  0  0  0  0
  126.7731  136.1905  162.1122 N   0  0  0  0  0  0  0  0  0  0  0  0
  126.5824  135.3860  160.0505 O   0  0  0  0  0  0  0  0  0  0  0  0
  130.1664  132.9977  155.7949 N   0  0  0  0  0  0  0  0  0  0  0  0
  130.2637  133.5301  154.9900 H   0  0  0  0  0  0  0  0  0  0  0  0
  130.5736  131.7210  155.9528 C   0  0  0  0  0  0  0  0  0  0  0  0
  131.2588  130.8680  154.9166 C   0  0  0  0  0  0  0  0  0  0  0  0
  129.6545  129.3474  157.6496 H   0  0  0  0  0  0  0  0  0  0  0  0
  131.4028  129.5620  157.3936 H   0  0  0  0  0  0  0  0  0  0  0  0
  130.6497  130.1207  158.9065 H   0  0  0  0  0  0  0  0  0  0  0  0
  128.2197  134.9508  156.4773 H   0  0  0  0  0  0  0  0  0  0  0  0
  129.8035  135.5213  157.0558 H   0  0  0  0  0  0  0  0  0  0  0  0
  127.5879  134.5760  158.7309 H   0  0  0  0  0  0  0  0  0  0  0  0
  131.1471  134.8448  158.5224 H   0  0  0  0  0  0  0  0  0  0  0  0
  132.6047  135.5744  160.3585 H   0  0  0  0  0  0  0  0  0  0  0  0
  131.4844  136.5226  163.6209 H   0  0  0  0  0  0  0  0  0  0  0  0
  133.7330  136.0008  161.9937 H   0  0  0  0  0  0  0  0  0  0  0  0
  133.7045  137.1451  163.3568 H   0  0  0  0  0  0  0  0  0  0  0  0
  134.7932  137.3963  160.0142 H   0  0  0  0  0  0  0  0  0  0  0  0
  131.7187  139.3312  162.2776 H   0  0  0  0  0  0  0  0  0  0  0  0
  129.1853  136.4608  162.7635 H   0  0  0  0  0  0  0  0  0  0  0  0
  127.3517  136.4787  162.8354 H   0  0  0  0  0  0  0  0  0  0  0  0
  125.8097  136.2212  162.2203 H   0  0  0  0  0  0  0  0  0  0  0  0
  130.5095  130.3329  154.3331 H   0  0  0  0  0  0  0  0  0  0  0  0
  131.8488  131.5028  154.2556 H   0  0  0  0  0  0  0  0  0  0  0  0
  131.9139  130.1509  155.4117 H   0  0  0  0  0  0  0  0  0  0  0  0
  1  2  1  0
  1 29  1  0
  1 30  1  0
  1 31  1  0
  2 27  2  0
  2  3  1  0
  3  4  1  0
  3  5  1  0
  5  6  1  0
  5 25  2  0
  6  7  1  0
  6 32  1  0
  6 33  1  0
  7  8  1  0
  7 34  1  0
  8 21  1  0
  8  9  2  0
  9 10  1  0
  9 35  1  0
 10 11  2  0
 10 36  1  0
 11 12  1  0
 11 20  1  0
 12 13  1  0
 12 37  1  0
 13 14  1  0
 13 38  1  0
 13 39  1  0
 14 19  2  0
 14 15  1  0
 15 16  2  0
 15 40  1  0
 16 17  1  0
 17 18  1  0
 17 19  1  0
 19 41  1  0
 20 21  2  0
 20 42  1  0
 21 22  1  0
 22 23  1  0
 22 24  2  0
 23 43  1  0
 23 44  1  0
 25 26  1  0
 25 27  1  0
 27 28  1  0
 28 45  1  0
 28 46  1  0
 28 47  1  0
M  CHG  1  25   1
M  END
>  <DOCK_score>  (1) 
-41.257919

>  <SMILES>  (1) 
Cc1[nH]c(CNc2ccc(NCc3cn[nH]c3)cc2C(N)=O)[nH+]c1C

$$$$
