Cc1[nH+]c(NCc2noc(-c3cccc(Br)c3)n2)[nH]c1-c1ccccc1
     RDKit          3D

 43 46  0  0  1  0  0  0  0  0999 V2000
  129.2429  130.5720  158.6350 C   0  0  0  0  0  0  0  0  0  0  0  0
  129.8296  131.9517  158.4818 C   0  0  0  0  0  0  0  0  0  0  0  0
  129.9039  132.8845  159.4399 N   0  0  0  0  0  0  0  0  0  0  0  0
  129.5858  132.7776  160.3501 H   0  0  0  0  0  0  0  0  0  0  0  0
  130.4732  133.9660  158.9591 C   0  0  0  0  0  0  0  0  0  0  0  0
  130.7146  135.1310  159.6637 N   0  0  0  0  0  0  0  0  0  0  0  0
  130.7446  135.1083  161.1282 C   0  0  0  0  0  0  0  0  0  0  0  0
  132.1495  134.8314  161.5977 C   0  0  0  0  0  0  0  0  0  0  0  0
  132.6646  133.6602  161.8304 N   0  0  0  0  0  0  0  0  0  0  0  0
  133.8159  133.7680  162.1962 O   0  0  0  0  0  0  0  0  0  0  0  0
  134.1591  135.0647  162.2336 C   0  0  0  0  0  0  0  0  0  0  0  0
  135.4717  135.6195  162.6261 C   0  0  0  0  0  0  0  0  0  0  0  0
  135.6796  137.0001  162.6197 C   0  0  0  0  0  0  0  0  0  0  0  0
  136.9085  137.5115  162.9815 C   0  0  0  0  0  0  0  0  0  0  0  0
  137.9331  136.6601  163.3555 C   0  0  0  0  0  0  0  0  0  0  0  0
  137.7327  135.2904  163.3687 C   0  0  0  0  0  0  0  0  0  0  0  0
  139.1397  134.1358  163.8815 Br  0  0  0  0  0  0  0  0  0  0  0  0
  136.5071  134.7659  163.0089 C   0  0  0  0  0  0  0  0  0  0  0  0
  133.0939  135.7493  161.8568 N   0  0  0  0  0  0  0  0  0  0  0  0
  130.7809  133.7523  157.6511 N   0  0  0  0  0  0  0  0  0  0  0  0
  131.2053  134.3816  157.0472 H   0  0  0  0  0  0  0  0  0  0  0  0
  130.3744  132.4643  157.3476 C   0  0  0  0  0  0  0  0  0  0  0  0
  130.5033  131.7820  156.0430 C   0  0  0  0  0  0  0  0  0  0  0  0
  129.8856  132.3137  154.9095 C   0  0  0  0  0  0  0  0  0  0  0  0
  130.0140  131.6743  153.6941 C   0  0  0  0  0  0  0  0  0  0  0  0
  130.7443  130.5030  153.5987 C   0  0  0  0  0  0  0  0  0  0  0  0
  131.3548  129.9678  154.7191 C   0  0  0  0  0  0  0  0  0  0  0  0
  131.2387  130.5998  155.9398 C   0  0  0  0  0  0  0  0  0  0  0  0
  128.1806  130.5998  158.3921 H   0  0  0  0  0  0  0  0  0  0  0  0
  129.7520  129.8837  157.9604 H   0  0  0  0  0  0  0  0  0  0  0  0
  129.3716  130.2347  159.6635 H   0  0  0  0  0  0  0  0  0  0  0  0
  130.8642  135.9632  159.1884 H   0  0  0  0  0  0  0  0  0  0  0  0
  130.0787  134.3264  161.4933 H   0  0  0  0  0  0  0  0  0  0  0  0
  130.4166  136.0740  161.5132 H   0  0  0  0  0  0  0  0  0  0  0  0
  134.8811  137.6660  162.3278 H   0  0  0  0  0  0  0  0  0  0  0  0
  137.0715  138.5790  162.9727 H   0  0  0  0  0  0  0  0  0  0  0  0
  138.8933  137.0657  163.6378 H   0  0  0  0  0  0  0  0  0  0  0  0
  136.3519  133.6971  163.0191 H   0  0  0  0  0  0  0  0  0  0  0  0
  129.3118  133.2258  154.9836 H   0  0  0  0  0  0  0  0  0  0  0  0
  129.5400  132.0867  152.8155 H   0  0  0  0  0  0  0  0  0  0  0  0
  130.8385  130.0042  152.6452 H   0  0  0  0  0  0  0  0  0  0  0  0
  131.9236  129.0533  154.6378 H   0  0  0  0  0  0  0  0  0  0  0  0
  131.7160  130.1812  156.8136 H   0  0  0  0  0  0  0  0  0  0  0  0
  1  2  1  0
  1 29  1  0
  1 30  1  0
  1 31  1  0
  2 22  2  0
  2  3  1  0
  3  4  1  0
  3  5  2  0
  5  6  1  0
  5 20  1  0
  6  7  1  0
  6 32  1  0
  7  8  1  0
  7 33  1  0
  7 34  1  0
  8 19  1  0
  8  9  2  0
  9 10  1  0
 10 11  1  0
 11 12  1  0
 11 19  2  0
 12 18  1  0
 12 13  2  0
 13 14  1  0
 13 35  1  0
 14 15  2  0
 14 36  1  0
 15 16  1  0
 15 37  1  0
 16 17  1  0
 16 18  2  0
 18 38  1  0
 20 21  1  0
 20 22  1  0
 22 23  1  0
 23 28  1  0
 23 24  2  0
 24 25  1  0
 24 39  1  0
 25 26  2  0
 25 40  1  0
 26 27  1  0
 26 41  1  0
 27 28  2  0
 27 42  1  0
 28 43  1  0
M  CHG  1   3   1
M  END
>  <DOCK_score>  (1) 
-59.13665

>  <SMILES>  (1) 
Cc1[nH+]c(NCc2noc(-c3cccc(Br)c3)n2)[nH]c1-c1ccccc1

$$$$
