N#CCc1cn(-c2ccc3cc[nH]c3c2)c2ccc(Nc3[nH+]c4ccccc4n3C3CC3)cc12
     RDKit          3D

 57 63  0  0  1  0  0  0  0  0999 V2000
  126.1981  136.0328  160.7309 N   0  0  0  0  0  0  0  0  0  0  0  0
  126.8575  135.2188  161.1703 C   0  0  0  0  0  0  0  0  0  0  0  0
  127.7119  134.1641  161.7399 C   0  0  0  0  0  0  0  0  0  0  0  0
  128.8423  133.8653  160.7892 C   0  0  0  0  0  0  0  0  0  0  0  0
  128.8348  132.9561  159.8013 C   0  0  0  0  0  0  0  0  0  0  0  0
  130.0381  132.9676  159.1471 N   0  0  0  0  0  0  0  0  0  0  0  0
  130.3742  132.1452  158.0637 C   0  0  0  0  0  0  0  0  0  0  0  0
  130.3655  130.7597  158.2183 C   0  0  0  0  0  0  0  0  0  0  0  0
  130.6857  129.9445  157.1712 C   0  0  0  0  0  0  0  0  0  0  0  0
  131.0353  130.5007  155.9384 C   0  0  0  0  0  0  0  0  0  0  0  0
  131.4280  129.9374  154.6438 C   0  0  0  0  0  0  0  0  0  0  0  0
  131.6479  130.9709  153.8164 C   0  0  0  0  0  0  0  0  0  0  0  0
  131.4279  132.1511  154.4753 N   0  0  0  0  0  0  0  0  0  0  0  0
  131.5223  133.0338  154.0842 H   0  0  0  0  0  0  0  0  0  0  0  0
  131.0517  131.8979  155.7755 C   0  0  0  0  0  0  0  0  0  0  0  0
  130.7177  132.7145  156.8504 C   0  0  0  0  0  0  0  0  0  0  0  0
  130.8705  133.9115  159.7156 C   0  0  0  0  0  0  0  0  0  0  0  0
  132.1707  134.3243  159.4445 C   0  0  0  0  0  0  0  0  0  0  0  0
  132.7510  135.3155  160.2032 C   0  0  0  0  0  0  0  0  0  0  0  0
  132.0470  135.9141  161.2471 C   0  0  0  0  0  0  0  0  0  0  0  0
  132.6520  136.9208  162.0099 N   0  0  0  0  0  0  0  0  0  0  0  0
  133.8097  136.6535  162.7113 C   0  0  0  0  0  0  0  0  0  0  0  0
  134.4228  135.4963  162.7389 N   0  0  0  0  0  0  0  0  0  0  0  0
  134.1324  134.6986  162.2696 H   0  0  0  0  0  0  0  0  0  0  0  0
  135.5292  135.5846  163.5226 C   0  0  0  0  0  0  0  0  0  0  0  0
  136.5217  134.6718  163.8886 C   0  0  0  0  0  0  0  0  0  0  0  0
  137.5409  135.0684  164.7250 C   0  0  0  0  0  0  0  0  0  0  0  0
  137.5898  136.3679  165.2077 C   0  0  0  0  0  0  0  0  0  0  0  0
  136.6177  137.2814  164.8556 C   0  0  0  0  0  0  0  0  0  0  0  0
  135.5841  136.8994  164.0139 C   0  0  0  0  0  0  0  0  0  0  0  0
  134.4841  137.5545  163.4851 N   0  0  0  0  0  0  0  0  0  0  0  0
  134.1133  138.9533  163.7134 C   0  0  0  0  0  0  0  0  0  0  0  0
  133.8332  139.8194  162.4838 C   0  0  0  0  0  0  0  0  0  0  0  0
  135.1170  140.0282  163.2910 C   0  0  0  0  0  0  0  0  0  0  0  0
  130.7557  135.5134  161.5356 C   0  0  0  0  0  0  0  0  0  0  0  0
  130.1565  134.5130  160.7675 C   0  0  0  0  0  0  0  0  0  0  0  0
  127.1203  133.2620  161.8960 H   0  0  0  0  0  0  0  0  0  0  0  0
  128.1187  134.5014  162.6933 H   0  0  0  0  0  0  0  0  0  0  0  0
  128.0032  132.3114  159.5583 H   0  0  0  0  0  0  0  0  0  0  0  0
  130.0995  130.3282  159.1719 H   0  0  0  0  0  0  0  0  0  0  0  0
  130.6730  128.8719  157.2968 H   0  0  0  0  0  0  0  0  0  0  0  0
  131.5224  128.8892  154.4015 H   0  0  0  0  0  0  0  0  0  0  0  0
  131.9523  130.8846  152.7838 H   0  0  0  0  0  0  0  0  0  0  0  0
  130.7261  133.7886  156.7384 H   0  0  0  0  0  0  0  0  0  0  0  0
  132.7254  133.8667  158.6385 H   0  0  0  0  0  0  0  0  0  0  0  0
  133.7609  135.6321  159.9882 H   0  0  0  0  0  0  0  0  0  0  0  0
  132.2592  137.8072  162.0418 H   0  0  0  0  0  0  0  0  0  0  0  0
  136.4892  133.6582  163.5170 H   0  0  0  0  0  0  0  0  0  0  0  0
  138.3077  134.3624  165.0076 H   0  0  0  0  0  0  0  0  0  0  0  0
  138.3944  136.6666  165.8634 H   0  0  0  0  0  0  0  0  0  0  0  0
  136.6619  138.2918  165.2344 H   0  0  0  0  0  0  0  0  0  0  0  0
  133.5201  139.1424  164.6080 H   0  0  0  0  0  0  0  0  0  0  0  0
  133.9246  139.3487  161.5050 H   0  0  0  0  0  0  0  0  0  0  0  0
  133.0558  140.5788  162.5696 H   0  0  0  0  0  0  0  0  0  0  0  0
  135.1836  140.9245  163.9075 H   0  0  0  0  0  0  0  0  0  0  0  0
  136.0533  139.6944  162.8436 H   0  0  0  0  0  0  0  0  0  0  0  0
  130.2122  135.9743  162.3471 H   0  0  0  0  0  0  0  0  0  0  0  0
  1  2  3  0
  2  3  1  0
  3  4  1  0
  3 37  1  0
  3 38  1  0
  4 36  1  0
  4  5  2  0
  5  6  1  0
  5 39  1  0
  6  7  1  0
  6 17  1  0
  7 16  1  0
  7  8  2  0
  8  9  1  0
  8 40  1  0
  9 10  2  0
  9 41  1  0
 10 15  1  0
 10 11  1  0
 11 12  2  0
 11 42  1  0
 12 13  1  0
 12 43  1  0
 13 14  1  0
 13 15  1  0
 15 16  2  0
 16 44  1  0
 17 36  2  0
 17 18  1  0
 18 19  2  0
 18 45  1  0
 19 20  1  0
 19 46  1  0
 20 21  1  0
 20 35  2  0
 21 47  1  0
 22 21  1  0
 22 31  1  0
 22 23  2  0
 23 24  1  0
 23 25  1  0
 25 30  2  0
 25 26  1  0
 26 27  2  0
 26 48  1  0
 27 28  1  0
 27 49  1  0
 28 29  2  0
 28 50  1  0
 29 30  1  0
 29 51  1  0
 30 31  1  0
 31 32  1  0
 32 34  1  0
 32 33  1  0
 32 52  1  0
 33 34  1  0
 33 53  1  0
 33 54  1  0
 34 55  1  0
 34 56  1  0
 35 36  1  0
 35 57  1  0
M  CHG  1  23   1
M  END
>  <DOCK_score>  (1) 
-42.96236

>  <SMILES>  (1) 
N#CCc1cn(-c2ccc3cc[nH]c3c2)c2ccc(Nc3[nH+]c4ccccc4n3C3CC3)cc12

$$$$
