Nc1ccc(-c2c[nH]c(Nc3ccc(Nc4ccccc4)cc3)[nH+]2)cc1
     RDKit          3D

 46 49  0  0  1  0  0  0  0  0999 V2000
  131.3180  129.1601  151.5424 N   0  0  0  0  0  0  0  0  0  0  0  0
  131.0456  129.8824  152.7066 C   0  0  0  0  0  0  0  0  0  0  0  0
  130.1405  130.9369  152.6734 C   0  0  0  0  0  0  0  0  0  0  0  0
  129.8706  131.6515  153.8215 C   0  0  0  0  0  0  0  0  0  0  0  0
  130.5057  131.3153  155.0160 C   0  0  0  0  0  0  0  0  0  0  0  0
  130.2169  132.0825  156.2524 C   0  0  0  0  0  0  0  0  0  0  0  0
  129.7048  131.5789  157.4028 C   0  0  0  0  0  0  0  0  0  0  0  0
  129.6040  132.6266  158.2866 N   0  0  0  0  0  0  0  0  0  0  0  0
  129.2747  132.5802  159.1978 H   0  0  0  0  0  0  0  0  0  0  0  0
  130.0494  133.7419  157.6461 C   0  0  0  0  0  0  0  0  0  0  0  0
  130.1090  135.0147  158.1892 N   0  0  0  0  0  0  0  0  0  0  0  0
  129.1865  135.4017  159.1690 C   0  0  0  0  0  0  0  0  0  0  0  0
  129.5500  136.3281  160.1378 C   0  0  0  0  0  0  0  0  0  0  0  0
  128.6386  136.7139  161.1004 C   0  0  0  0  0  0  0  0  0  0  0  0
  127.3600  136.1715  161.1034 C   0  0  0  0  0  0  0  0  0  0  0  0
  126.4362  136.5622  162.0796 N   0  0  0  0  0  0  0  0  0  0  0  0
  126.7180  136.3525  163.4316 C   0  0  0  0  0  0  0  0  0  0  0  0
  126.2088  137.2184  164.3914 C   0  0  0  0  0  0  0  0  0  0  0  0
  126.4860  137.0059  165.7274 C   0  0  0  0  0  0  0  0  0  0  0  0
  127.2773  135.9380  166.1097 C   0  0  0  0  0  0  0  0  0  0  0  0
  127.7899  135.0769  165.1566 C   0  0  0  0  0  0  0  0  0  0  0  0
  127.5130  135.2810  163.8192 C   0  0  0  0  0  0  0  0  0  0  0  0
  126.9984  135.2407  160.1380 C   0  0  0  0  0  0  0  0  0  0  0  0
  127.9097  134.8549  159.1754 C   0  0  0  0  0  0  0  0  0  0  0  0
  130.4178  133.4117  156.4321 N   0  0  0  0  0  0  0  0  0  0  0  0
  130.7770  134.0208  155.7681 H   0  0  0  0  0  0  0  0  0  0  0  0
  131.4170  130.2609  155.0457 C   0  0  0  0  0  0  0  0  0  0  0  0
  131.6796  129.5454  153.8965 C   0  0  0  0  0  0  0  0  0  0  0  0
  130.8754  129.3949  150.7114 H   0  0  0  0  0  0  0  0  0  0  0  0
  131.9492  128.4243  151.5645 H   0  0  0  0  0  0  0  0  0  0  0  0
  129.6486  131.1970  151.7477 H   0  0  0  0  0  0  0  0  0  0  0  0
  129.1672  132.4705  153.7954 H   0  0  0  0  0  0  0  0  0  0  0  0
  129.4327  130.5507  157.5900 H   0  0  0  0  0  0  0  0  0  0  0  0
  130.7898  135.6379  157.8909 H   0  0  0  0  0  0  0  0  0  0  0  0
  130.5443  136.7499  160.1354 H   0  0  0  0  0  0  0  0  0  0  0  0
  128.9199  137.4380  161.8510 H   0  0  0  0  0  0  0  0  0  0  0  0
  125.6005  136.9788  161.8173 H   0  0  0  0  0  0  0  0  0  0  0  0
  125.5939  138.0548  164.0934 H   0  0  0  0  0  0  0  0  0  0  0  0
  126.0880  137.6768  166.4743 H   0  0  0  0  0  0  0  0  0  0  0  0
  127.4957  135.7762  167.1549 H   0  0  0  0  0  0  0  0  0  0  0  0
  128.4077  134.2441  165.4585 H   0  0  0  0  0  0  0  0  0  0  0  0
  127.9141  134.6085  163.0752 H   0  0  0  0  0  0  0  0  0  0  0  0
  126.0041  134.8190  160.1401 H   0  0  0  0  0  0  0  0  0  0  0  0
  127.6285  134.1312  158.4247 H   0  0  0  0  0  0  0  0  0  0  0  0
  131.9138  130.0018  155.9689 H   0  0  0  0  0  0  0  0  0  0  0  0
  132.3822  128.7255  153.9199 H   0  0  0  0  0  0  0  0  0  0  0  0
  1  2  1  0
  1 29  1  0
  1 30  1  0
  2 28  2  0
  2  3  1  0
  3  4  2  0
  3 31  1  0
  4  5  1  0
  4 32  1  0
  5  6  1  0
  5 27  2  0
  6 25  1  0
  6  7  2  0
  7  8  1  0
  7 33  1  0
  8  9  1  0
  8 10  1  0
 10 11  1  0
 10 25  2  0
 11 12  1  0
 11 34  1  0
 12 24  1  0
 12 13  2  0
 13 14  1  0
 13 35  1  0
 14 15  2  0
 14 36  1  0
 15 16  1  0
 15 23  1  0
 16 17  1  0
 16 37  1  0
 17 22  1  0
 17 18  2  0
 18 19  1  0
 18 38  1  0
 19 20  2  0
 19 39  1  0
 20 21  1  0
 20 40  1  0
 21 22  2  0
 21 41  1  0
 22 42  1  0
 23 24  2  0
 23 43  1  0
 24 44  1  0
 25 26  1  0
 27 28  1  0
 27 45  1  0
 28 46  1  0
M  CHG  1  25   1
M  END
>  <DOCK_score>  (1) 
-56.904289

>  <SMILES>  (1) 
Nc1ccc(-c2c[nH]c(Nc3ccc(Nc4ccccc4)cc3)[nH+]2)cc1

$$$$
