Cc1cc(O)ccc1N[C@H]1C[C@H]1[NH2+][C@H](CO)c1ccc(-c2ccccc2)cc1
     RDKit          3D

 55 58  0  0  1  0  0  0  0  0999 V2000
  127.5073  135.5245  157.9162 C   0  0  0  0  0  0  0  0  0  0  0  0
  127.3427  135.0062  159.3215 C   0  0  0  0  0  0  0  0  0  0  0  0
  126.3636  135.5322  160.1417 C   0  0  0  0  0  0  0  0  0  0  0  0
  126.2119  135.0553  161.4351 C   0  0  0  0  0  0  0  0  0  0  0  0
  125.2482  135.5744  162.2421 O   0  0  0  0  0  0  0  0  0  0  0  0
  127.0430  134.0495  161.9063 C   0  0  0  0  0  0  0  0  0  0  0  0
  128.0222  133.5222  161.0876 C   0  0  0  0  0  0  0  0  0  0  0  0
  128.1750  133.9995  159.7923 C   0  0  0  0  0  0  0  0  0  0  0  0
  129.1634  133.4620  158.9602 N   0  0  0  0  0  0  0  0  0  0  0  0
  130.4043  132.9410  159.5390 C   0  0  1  0  0  0  0  0  0  0  0  0
  130.2848  132.1212  160.2474 H   0  0  0  0  0  0  0  0  0  0  0  0
  131.6486  132.9296  158.6488 C   0  0  0  0  0  0  0  0  0  0  0  0
  131.5371  133.9370  159.7949 C   0  0  1  0  0  0  0  0  0  0  0  0
  132.1631  133.7728  160.6720 H   0  0  0  0  0  0  0  0  0  0  0  0
  131.2973  135.3425  159.4416 N   0  0  0  0  0  0  0  0  0  0  0  0
  132.1806  135.8198  159.3424 H   0  0  0  0  0  0  0  0  0  0  0  0
  130.7904  135.3885  158.5703 H   0  0  0  0  0  0  0  0  0  0  0  0
  130.5092  135.9863  160.5011 C   0  0  2  0  0  0  0  0  0  0  0  0
  129.5549  135.4705  160.6083 H   0  0  0  0  0  0  0  0  0  0  0  0
  130.2594  137.4501  160.1330 C   0  0  0  0  0  0  0  0  0  0  0  0
  131.4401  138.0020  159.5469 O   0  0  0  0  0  0  0  0  0  0  0  0
  131.2662  135.9176  161.8024 C   0  0  0  0  0  0  0  0  0  0  0  0
  132.5131  136.5073  161.9061 C   0  0  0  0  0  0  0  0  0  0  0  0
  133.2083  136.4524  163.0972 C   0  0  0  0  0  0  0  0  0  0  0  0
  132.6568  135.7915  164.1929 C   0  0  0  0  0  0  0  0  0  0  0  0
  133.4020  135.7243  165.4744 C   0  0  0  0  0  0  0  0  0  0  0  0
  132.7109  135.6667  166.6828 C   0  0  0  0  0  0  0  0  0  0  0  0
  133.4090  135.5975  167.8716 C   0  0  0  0  0  0  0  0  0  0  0  0
  134.7927  135.5987  167.8649 C   0  0  0  0  0  0  0  0  0  0  0  0
  135.4834  135.6618  166.6686 C   0  0  0  0  0  0  0  0  0  0  0  0
  134.7954  135.7244  165.4738 C   0  0  0  0  0  0  0  0  0  0  0  0
  131.4029  135.1942  164.0811 C   0  0  0  0  0  0  0  0  0  0  0  0
  130.7140  135.2603  162.8869 C   0  0  0  0  0  0  0  0  0  0  0  0
  126.8829  134.9421  157.2388 H   0  0  0  0  0  0  0  0  0  0  0  0
  127.2069  136.5715  157.8775 H   0  0  0  0  0  0  0  0  0  0  0  0
  128.5512  135.4347  157.6157 H   0  0  0  0  0  0  0  0  0  0  0  0
  125.7161  136.3152  159.7757 H   0  0  0  0  0  0  0  0  0  0  0  0
  124.7199  136.2698  161.8268 H   0  0  0  0  0  0  0  0  0  0  0  0
  126.9241  133.6785  162.9135 H   0  0  0  0  0  0  0  0  0  0  0  0
  128.6688  132.7389  161.4544 H   0  0  0  0  0  0  0  0  0  0  0  0
  129.0270  133.4344  158.0004 H   0  0  0  0  0  0  0  0  0  0  0  0
  132.3480  132.1026  158.7718 H   0  0  0  0  0  0  0  0  0  0  0  0
  131.5440  133.3098  157.6326 H   0  0  0  0  0  0  0  0  0  0  0  0
  129.4374  137.5103  159.4197 H   0  0  0  0  0  0  0  0  0  0  0  0
  130.0029  138.0119  161.0311 H   0  0  0  0  0  0  0  0  0  0  0  0
  131.7275  137.5504  158.7416 H   0  0  0  0  0  0  0  0  0  0  0  0
  132.9415  137.0155  161.0549 H   0  0  0  0  0  0  0  0  0  0  0  0
  134.1799  136.9170  163.1784 H   0  0  0  0  0  0  0  0  0  0  0  0
  131.6310  135.6711  166.6893 H   0  0  0  0  0  0  0  0  0  0  0  0
  132.8743  135.5476  168.8086 H   0  0  0  0  0  0  0  0  0  0  0  0
  135.3352  135.5497  168.7974 H   0  0  0  0  0  0  0  0  0  0  0  0
  136.5634  135.6617  166.6694 H   0  0  0  0  0  0  0  0  0  0  0  0
  135.3360  135.7730  164.5401 H   0  0  0  0  0  0  0  0  0  0  0  0
  130.9707  134.6810  164.9274 H   0  0  0  0  0  0  0  0  0  0  0  0
  129.7421  134.7973  162.7991 H   0  0  0  0  0  0  0  0  0  0  0  0
  1  2  1  0
  1 34  1  0
  1 35  1  0
  1 36  1  0
  2  8  2  0
  2  3  1  0
  3  4  2  0
  3 37  1  0
  4  5  1  0
  4  6  1  0
  5 38  1  0
  6  7  2  0
  6 39  1  0
  7  8  1  0
  7 40  1  0
  8  9  1  0
  9 10  1  0
  9 41  1  0
 10 11  1  1
 10 13  1  0
 10 12  1  0
 12 13  1  0
 12 42  1  0
 12 43  1  0
 13 14  1  1
 13 15  1  0
 15 16  1  0
 15 17  1  0
 15 18  1  0
 18 19  1  1
 18 20  1  0
 18 22  1  0
 20 21  1  0
 20 44  1  0
 20 45  1  0
 21 46  1  0
 22 33  1  0
 22 23  2  0
 23 24  1  0
 23 47  1  0
 24 25  2  0
 24 48  1  0
 25 26  1  0
 25 32  1  0
 26 31  1  0
 26 27  2  0
 27 28  1  0
 27 49  1  0
 28 29  2  0
 28 50  1  0
 29 30  1  0
 29 51  1  0
 30 31  2  0
 30 52  1  0
 31 53  1  0
 32 33  2  0
 32 54  1  0
 33 55  1  0
M  CHG  1  15   1
M  END
>  <DOCK_score>  (1) 
-46.921177

>  <SMILES>  (1) 
Cc1cc(O)ccc1N[C@H]1C[C@H]1[NH2+][C@H](CO)c1ccc(-c2ccccc2)cc1

$$$$
