IC=Cc1c[nH]c(N[C@H](c2ccccc2)c2cccc3ccccc23)[nH+]1
     RDKit          3D

 45 48  0  0  1  0  0  0  0  0999 V2000
  131.4634  130.7528  153.2595 I   0  0  0  0  0  0  0  0  0  0  0  0
  130.8443  131.9451  154.8670 C   0  0  0  0  0  0  0  0  0  0  0  0
  130.6986  131.4098  156.0727 C   0  0  0  0  0  0  0  0  0  0  0  0
  130.2620  132.2506  157.2063 C   0  0  0  0  0  0  0  0  0  0  0  0
  129.5434  131.8339  158.2811 C   0  0  0  0  0  0  0  0  0  0  0  0
  129.3636  132.9300  159.0888 N   0  0  0  0  0  0  0  0  0  0  0  0
  128.8902  132.9483  159.9352 H   0  0  0  0  0  0  0  0  0  0  0  0
  129.9694  133.9869  158.4815 C   0  0  0  0  0  0  0  0  0  0  0  0
  130.0144  135.2805  158.9718 N   0  0  0  0  0  0  0  0  0  0  0  0
  128.9225  135.7854  159.8080 C   0  0  2  0  0  0  0  0  0  0  0  0
  128.8341  135.1680  160.7018 H   0  0  0  0  0  0  0  0  0  0  0  0
  127.6313  135.7346  159.0326 C   0  0  0  0  0  0  0  0  0  0  0  0
  126.4338  135.5428  159.6960 C   0  0  0  0  0  0  0  0  0  0  0  0
  125.2491  135.5000  158.9850 C   0  0  0  0  0  0  0  0  0  0  0  0
  125.2627  135.6402  157.6099 C   0  0  0  0  0  0  0  0  0  0  0  0
  126.4606  135.8271  156.9461 C   0  0  0  0  0  0  0  0  0  0  0  0
  127.6450  135.8738  157.6573 C   0  0  0  0  0  0  0  0  0  0  0  0
  129.2129  137.2092  160.2076 C   0  0  0  0  0  0  0  0  0  0  0  0
  129.9402  138.0154  159.3867 C   0  0  0  0  0  0  0  0  0  0  0  0
  130.2190  139.3342  159.7393 C   0  0  0  0  0  0  0  0  0  0  0  0
  129.7726  139.8546  160.9154 C   0  0  0  0  0  0  0  0  0  0  0  0
  129.0186  139.0527  161.7886 C   0  0  0  0  0  0  0  0  0  0  0  0
  128.5394  139.5550  163.0106 C   0  0  0  0  0  0  0  0  0  0  0  0
  127.8116  138.7492  163.8309 C   0  0  0  0  0  0  0  0  0  0  0  0
  127.5329  137.4299  163.4782 C   0  0  0  0  0  0  0  0  0  0  0  0
  127.9799  136.9092  162.3030 C   0  0  0  0  0  0  0  0  0  0  0  0
  128.7345  137.7112  161.4296 C   0  0  0  0  0  0  0  0  0  0  0  0
  130.5077  133.5774  157.3591 N   0  0  0  0  0  0  0  0  0  0  0  0
  131.0029  134.1330  156.7371 H   0  0  0  0  0  0  0  0  0  0  0  0
  130.6437  132.9952  154.7146 H   0  0  0  0  0  0  0  0  0  0  0  0
  130.8991  130.3596  156.2251 H   0  0  0  0  0  0  0  0  0  0  0  0
  129.1857  130.8319  158.4669 H   0  0  0  0  0  0  0  0  0  0  0  0
  130.7689  135.8528  158.7620 H   0  0  0  0  0  0  0  0  0  0  0  0
  126.4235  135.4297  160.7700 H   0  0  0  0  0  0  0  0  0  0  0  0
  124.3130  135.3537  159.5037 H   0  0  0  0  0  0  0  0  0  0  0  0
  124.3374  135.6034  157.0542 H   0  0  0  0  0  0  0  0  0  0  0  0
  126.4713  135.9363  155.8716 H   0  0  0  0  0  0  0  0  0  0  0  0
  128.5810  136.0194  157.1385 H   0  0  0  0  0  0  0  0  0  0  0  0
  130.3065  137.6272  158.4478 H   0  0  0  0  0  0  0  0  0  0  0  0
  130.7984  139.9528  159.0698 H   0  0  0  0  0  0  0  0  0  0  0  0
  130.0005  140.8772  161.1777 H   0  0  0  0  0  0  0  0  0  0  0  0
  128.7482  140.5751  163.2974 H   0  0  0  0  0  0  0  0  0  0  0  0
  127.4444  139.1377  164.7694 H   0  0  0  0  0  0  0  0  0  0  0  0
  126.9532  136.8116  164.1474 H   0  0  0  0  0  0  0  0  0  0  0  0
  127.7556  135.8854  162.0427 H   0  0  0  0  0  0  0  0  0  0  0  0
  1  2  1  0
  2  3  2  0
  2 30  1  0
  3  4  1  0
  3 31  1  0
  4 28  1  0
  4  5  2  0
  5  6  1  0
  5 32  1  0
  6  7  1  0
  6  8  1  0
  8  9  1  0
  8 28  2  0
  9 10  1  0
  9 33  1  0
 10 11  1  1
 10 12  1  0
 10 18  1  0
 12 17  1  0
 12 13  2  0
 13 14  1  0
 13 34  1  0
 14 15  2  0
 14 35  1  0
 15 16  1  0
 15 36  1  0
 16 17  2  0
 16 37  1  0
 17 38  1  0
 18 27  1  0
 18 19  2  0
 19 20  1  0
 19 39  1  0
 20 21  2  0
 20 40  1  0
 21 22  1  0
 21 41  1  0
 22 27  2  0
 22 23  1  0
 23 24  2  0
 23 42  1  0
 24 25  1  0
 24 43  1  0
 25 26  2  0
 25 44  1  0
 26 27  1  0
 26 45  1  0
 28 29  1  0
M  CHG  1  28   1
M  END
>  <DOCK_score>  (1) 
-57.991798

>  <SMILES>  (1) 
IC=Cc1c[nH]c(N[C@H](c2ccccc2)c2cccc3ccccc23)[nH+]1

$$$$
