Oc1ccc2c(c1)C(Nc1[nH]cc(-c3ccc(F)cc3)[nH+]1)c1cc(O)ccc1-2
     RDKit          3D

 45 49  0  0  1  0  0  0  0  0999 V2000
  131.3844  130.9552  157.9389 O   0  0  0  0  0  0  0  0  0  0  0  0
  130.1599  131.2278  158.4614 C   0  0  0  0  0  0  0  0  0  0  0  0
  129.2691  130.1947  158.7189 C   0  0  0  0  0  0  0  0  0  0  0  0
  128.0261  130.4667  159.2484 C   0  0  0  0  0  0  0  0  0  0  0  0
  127.6583  131.7848  159.5273 C   0  0  0  0  0  0  0  0  0  0  0  0
  128.5570  132.8163  159.2663 C   0  0  0  0  0  0  0  0  0  0  0  0
  129.7987  132.5401  158.7366 C   0  0  0  0  0  0  0  0  0  0  0  0
  127.8913  134.1110  159.6637 C   0  0  0  0  0  0  0  0  0  0  0  0
  128.6638  134.7724  160.7184 N   0  0  0  0  0  0  0  0  0  0  0  0
  129.1827  136.0382  160.5061 C   0  0  0  0  0  0  0  0  0  0  0  0
  129.5684  136.5452  159.3036 N   0  0  0  0  0  0  0  0  0  0  0  0
  129.5291  136.0892  158.4484 H   0  0  0  0  0  0  0  0  0  0  0  0
  130.0175  137.8252  159.5236 C   0  0  0  0  0  0  0  0  0  0  0  0
  129.9019  138.0594  160.8542 C   0  0  0  0  0  0  0  0  0  0  0  0
  130.2710  139.3136  161.5552 C   0  0  0  0  0  0  0  0  0  0  0  0
  130.7031  139.2728  162.8797 C   0  0  0  0  0  0  0  0  0  0  0  0
  131.0449  140.4418  163.5279 C   0  0  0  0  0  0  0  0  0  0  0  0
  130.9594  141.6549  162.8643 C   0  0  0  0  0  0  0  0  0  0  0  0
  131.2951  142.7971  163.5029 F   0  0  0  0  0  0  0  0  0  0  0  0
  130.5304  141.7003  161.5478 C   0  0  0  0  0  0  0  0  0  0  0  0
  130.1865  140.5362  160.8915 C   0  0  0  0  0  0  0  0  0  0  0  0
  129.3835  136.9458  161.4301 N   0  0  0  0  0  0  0  0  0  0  0  0
  129.1925  136.8382  162.3751 H   0  0  0  0  0  0  0  0  0  0  0  0
  126.5230  133.7371  160.1788 C   0  0  0  0  0  0  0  0  0  0  0  0
  125.4831  134.4910  160.6745 C   0  0  0  0  0  0  0  0  0  0  0  0
  124.3103  133.8719  161.0865 C   0  0  0  0  0  0  0  0  0  0  0  0
  123.2843  134.6167  161.5753 O   0  0  0  0  0  0  0  0  0  0  0  0
  124.1866  132.4921  160.9991 C   0  0  0  0  0  0  0  0  0  0  0  0
  125.2252  131.7327  160.5047 C   0  0  0  0  0  0  0  0  0  0  0  0
  126.4068  132.3506  160.0892 C   0  0  0  0  0  0  0  0  0  0  0  0
  131.9332  131.7380  157.7936 H   0  0  0  0  0  0  0  0  0  0  0  0
  129.5510  129.1746  158.5034 H   0  0  0  0  0  0  0  0  0  0  0  0
  127.3359  129.6602  159.4473 H   0  0  0  0  0  0  0  0  0  0  0  0
  130.4914  133.3442  158.5368 H   0  0  0  0  0  0  0  0  0  0  0  0
  127.8001  134.7673  158.7982 H   0  0  0  0  0  0  0  0  0  0  0  0
  128.8117  134.3233  161.5654 H   0  0  0  0  0  0  0  0  0  0  0  0
  130.3931  138.5121  158.7796 H   0  0  0  0  0  0  0  0  0  0  0  0
  130.7698  138.3275  163.3979 H   0  0  0  0  0  0  0  0  0  0  0  0
  131.3756  140.4116  164.5556 H   0  0  0  0  0  0  0  0  0  0  0  0
  130.4648  142.6482  161.0343 H   0  0  0  0  0  0  0  0  0  0  0  0
  129.8526  140.5724  159.8651 H   0  0  0  0  0  0  0  0  0  0  0  0
  125.5799  135.5644  160.7426 H   0  0  0  0  0  0  0  0  0  0  0  0
  123.4636  135.5667  161.5977 H   0  0  0  0  0  0  0  0  0  0  0  0
  123.2739  132.0120  161.3199 H   0  0  0  0  0  0  0  0  0  0  0  0
  125.1251  130.6594  160.4384 H   0  0  0  0  0  0  0  0  0  0  0  0
  1  2  1  0
  1 31  1  0
  2  7  2  0
  2  3  1  0
  3  4  2  0
  3 32  1  0
  4  5  1  0
  4 33  1  0
  5 30  1  0
  5  6  2  0
  6  7  1  0
  6  8  1  0
  7 34  1  0
  8  9  1  0
  8 24  1  0
  8 35  1  0
  9 36  1  0
 10  9  1  0
 10 22  2  0
 10 11  1  0
 11 12  1  0
 11 13  1  0
 13 14  2  0
 13 37  1  0
 14 15  1  0
 14 22  1  0
 15 21  1  0
 15 16  2  0
 16 17  1  0
 16 38  1  0
 17 18  2  0
 17 39  1  0
 18 19  1  0
 18 20  1  0
 20 21  2  0
 20 40  1  0
 21 41  1  0
 22 23  1  0
 24 30  2  0
 24 25  1  0
 25 26  2  0
 25 42  1  0
 26 27  1  0
 26 28  1  0
 27 43  1  0
 28 29  2  0
 28 44  1  0
 29 30  1  0
 29 45  1  0
M  CHG  1  22   1
M  END
>  <DOCK_score>  (1) 
-42.25573

>  <SMILES>  (1) 
Oc1ccc2c(c1)C(Nc1[nH]cc(-c3ccc(F)cc3)[nH+]1)c1cc(O)ccc1-2

$$$$
