CC(NC(=O)c1c[nH]nc1[C@@H]1CCC[NH2+]C1)(c1ccccc1)c1ccccc1
     RDKit          3D

 55 58  0  0  1  0  0  0  0  0999 V2000
  132.4958  137.3807  162.9577 C   0  0  0  0  0  0  0  0  0  0  0  0
  131.7003  138.4932  162.2720 C   0  0  0  0  0  0  0  0  0  0  0  0
  130.3189  138.0506  162.0669 N   0  0  0  0  0  0  0  0  0  0  0  0
  130.0650  136.9594  161.3177 C   0  0  0  0  0  0  0  0  0  0  0  0
  130.9826  136.3421  160.8120 O   0  0  0  0  0  0  0  0  0  0  0  0
  128.6748  136.5141  161.1113 C   0  0  0  0  0  0  0  0  0  0  0  0
  127.6219  136.6812  161.9884 C   0  0  0  0  0  0  0  0  0  0  0  0
  126.5364  136.1296  161.4228 N   0  0  0  0  0  0  0  0  0  0  0  0
  125.6493  136.0952  161.8136 H   0  0  0  0  0  0  0  0  0  0  0  0
  126.9004  135.6128  160.1744 N   0  0  0  0  0  0  0  0  0  0  0  0
  128.1700  135.8388  159.9775 C   0  0  0  0  0  0  0  0  0  0  0  0
  128.9611  135.4432  158.7574 C   0  0  2  0  0  0  0  0  0  0  0  0
  129.7724  136.1544  158.6024 H   0  0  0  0  0  0  0  0  0  0  0  0
  128.0430  135.4398  157.5316 C   0  0  0  0  0  0  0  0  0  0  0  0
  128.8354  134.9606  156.3119 C   0  0  0  0  0  0  0  0  0  0  0  0
  129.4204  133.5768  156.6021 C   0  0  0  0  0  0  0  0  0  0  0  0
  130.3105  133.6522  157.7667 N   0  0  0  0  0  0  0  0  0  0  0  0
  130.7358  132.7507  157.9228 H   0  0  0  0  0  0  0  0  0  0  0  0
  131.0309  134.3375  157.5945 H   0  0  0  0  0  0  0  0  0  0  0  0
  129.5430  134.0418  158.9557 C   0  0  0  0  0  0  0  0  0  0  0  0
  132.3285  138.8121  160.9398 C   0  0  0  0  0  0  0  0  0  0  0  0
  133.6891  138.6467  160.7601 C   0  0  0  0  0  0  0  0  0  0  0  0
  134.2648  138.9350  159.5368 C   0  0  0  0  0  0  0  0  0  0  0  0
  133.4817  139.3975  158.4963 C   0  0  0  0  0  0  0  0  0  0  0  0
  132.1215  139.5678  158.6773 C   0  0  0  0  0  0  0  0  0  0  0  0
  131.5453  139.2753  159.8994 C   0  0  0  0  0  0  0  0  0  0  0  0
  131.7093  139.7254  163.1395 C   0  0  0  0  0  0  0  0  0  0  0  0
  132.3762  139.7134  164.3502 C   0  0  0  0  0  0  0  0  0  0  0  0
  132.3882  140.8452  165.1439 C   0  0  0  0  0  0  0  0  0  0  0  0
  131.7251  141.9857  164.7314 C   0  0  0  0  0  0  0  0  0  0  0  0
  131.0541  141.9961  163.5228 C   0  0  0  0  0  0  0  0  0  0  0  0
  131.0459  140.8659  162.7271 C   0  0  0  0  0  0  0  0  0  0  0  0
  132.4893  136.4894  162.3303 H   0  0  0  0  0  0  0  0  0  0  0  0
  133.5236  137.7101  163.1103 H   0  0  0  0  0  0  0  0  0  0  0  0
  132.0413  137.1500  163.9214 H   0  0  0  0  0  0  0  0  0  0  0  0
  129.5869  138.5430  162.4703 H   0  0  0  0  0  0  0  0  0  0  0  0
  127.6646  137.1631  162.9540 H   0  0  0  0  0  0  0  0  0  0  0  0
  127.6716  136.4486  157.3516 H   0  0  0  0  0  0  0  0  0  0  0  0
  127.2029  134.7680  157.7074 H   0  0  0  0  0  0  0  0  0  0  0  0
  128.1734  134.9020  155.4478 H   0  0  0  0  0  0  0  0  0  0  0  0
  129.6435  135.6620  156.1043 H   0  0  0  0  0  0  0  0  0  0  0  0
  128.6111  132.8766  156.8086 H   0  0  0  0  0  0  0  0  0  0  0  0
  129.9855  133.2328  155.7357 H   0  0  0  0  0  0  0  0  0  0  0  0
  128.7309  133.3318  159.1122 H   0  0  0  0  0  0  0  0  0  0  0  0
  130.1982  134.0415  159.8268 H   0  0  0  0  0  0  0  0  0  0  0  0
  134.3019  138.2890  161.5744 H   0  0  0  0  0  0  0  0  0  0  0  0
  135.3272  138.8018  159.3952 H   0  0  0  0  0  0  0  0  0  0  0  0
  133.9320  139.6261  157.5416 H   0  0  0  0  0  0  0  0  0  0  0  0
  131.5095  139.9293  157.8643 H   0  0  0  0  0  0  0  0  0  0  0  0
  130.4828  139.4085  160.0410 H   0  0  0  0  0  0  0  0  0  0  0  0
  132.8909  138.8211  164.6744 H   0  0  0  0  0  0  0  0  0  0  0  0
  132.9127  140.8372  166.0881 H   0  0  0  0  0  0  0  0  0  0  0  0
  131.7315  142.8689  165.3531 H   0  0  0  0  0  0  0  0  0  0  0  0
  130.5360  142.8872  163.2003 H   0  0  0  0  0  0  0  0  0  0  0  0
  130.5214  140.8739  161.7830 H   0  0  0  0  0  0  0  0  0  0  0  0
  1  2  1  0
  1 33  1  0
  1 34  1  0
  1 35  1  0
  2  3  1  0
  2 21  1  0
  2 27  1  0
  3  4  1  0
  3 36  1  0
  4  5  2  0
  4  6  1  0
  6 11  1  0
  6  7  2  0
  7  8  1  0
  7 37  1  0
  8  9  1  0
  8 10  1  0
 10 11  2  0
 11 12  1  0
 12 13  1  6
 12 20  1  0
 12 14  1  0
 14 15  1  0
 14 38  1  0
 14 39  1  0
 15 16  1  0
 15 40  1  0
 15 41  1  0
 16 17  1  0
 16 42  1  0
 16 43  1  0
 17 18  1  0
 17 19  1  0
 17 20  1  0
 20 44  1  0
 20 45  1  0
 21 26  1  0
 21 22  2  0
 22 23  1  0
 22 46  1  0
 23 24  2  0
 23 47  1  0
 24 25  1  0
 24 48  1  0
 25 26  2  0
 25 49  1  0
 26 50  1  0
 27 32  1  0
 27 28  2  0
 28 29  1  0
 28 51  1  0
 29 30  2  0
 29 52  1  0
 30 31  1  0
 30 53  1  0
 31 32  2  0
 31 54  1  0
 32 55  1  0
M  CHG  1  17   1
M  END
>  <DOCK_score>  (1) 
-41.034058

>  <SMILES>  (1) 
CC(NC(=O)c1c[nH]nc1[C@@H]1CCC[NH2+]C1)(c1ccccc1)c1ccccc1

$$$$
