Cc1c[nH]c(NC=CCNC2c3cc(O)ccc3-c3ccc(O)cc32)[nH+]1
     RDKit          3D

 47 50  0  0  1  0  0  0  0  0999 V2000
  130.2456  132.1876  154.7054 C   0  0  0  0  0  0  0  0  0  0  0  0
  129.8553  132.7644  156.0418 C   0  0  0  0  0  0  0  0  0  0  0  0
  129.2234  132.1061  157.0288 C   0  0  0  0  0  0  0  0  0  0  0  0
  129.0610  132.9966  158.0652 N   0  0  0  0  0  0  0  0  0  0  0  0
  128.6374  132.8171  158.9191 H   0  0  0  0  0  0  0  0  0  0  0  0
  129.6067  134.1769  157.6649 C   0  0  0  0  0  0  0  0  0  0  0  0
  129.6552  135.3427  158.4130 N   0  0  0  0  0  0  0  0  0  0  0  0
  129.1146  135.3698  159.6936 C   0  0  0  0  0  0  0  0  0  0  0  0
  129.1607  136.4801  160.4060 C   0  0  0  0  0  0  0  0  0  0  0  0
  128.5746  136.5094  161.7941 C   0  0  0  0  0  0  0  0  0  0  0  0
  129.3130  137.4769  162.6170 N   0  0  0  0  0  0  0  0  0  0  0  0
  128.8650  138.8492  162.3454 C   0  0  0  0  0  0  0  0  0  0  0  0
  127.6273  139.1607  163.1506 C   0  0  0  0  0  0  0  0  0  0  0  0
  126.3725  138.5912  163.1743 C   0  0  0  0  0  0  0  0  0  0  0  0
  125.3998  139.0905  164.0302 C   0  0  0  0  0  0  0  0  0  0  0  0
  124.1610  138.5321  164.0505 O   0  0  0  0  0  0  0  0  0  0  0  0
  125.6949  140.1564  164.8694 C   0  0  0  0  0  0  0  0  0  0  0  0
  126.9500  140.7253  164.8524 C   0  0  0  0  0  0  0  0  0  0  0  0
  127.9305  140.2301  163.9893 C   0  0  0  0  0  0  0  0  0  0  0  0
  129.3380  140.6461  163.7703 C   0  0  0  0  0  0  0  0  0  0  0  0
  130.0997  141.6565  164.3620 C   0  0  0  0  0  0  0  0  0  0  0  0
  131.4097  141.8466  163.9792 C   0  0  0  0  0  0  0  0  0  0  0  0
  131.9776  141.0354  163.0059 C   0  0  0  0  0  0  0  0  0  0  0  0
  133.2702  141.2256  162.6320 O   0  0  0  0  0  0  0  0  0  0  0  0
  131.2247  140.0295  162.4152 C   0  0  0  0  0  0  0  0  0  0  0  0
  129.9140  139.8367  162.7947 C   0  0  0  0  0  0  0  0  0  0  0  0
  130.0742  134.0260  156.4482 N   0  0  0  0  0  0  0  0  0  0  0  0
  130.5111  134.7162  155.9252 H   0  0  0  0  0  0  0  0  0  0  0  0
  129.4331  132.3363  153.9942 H   0  0  0  0  0  0  0  0  0  0  0  0
  131.1429  132.6883  154.3417 H   0  0  0  0  0  0  0  0  0  0  0  0
  130.4431  131.1211  154.8137 H   0  0  0  0  0  0  0  0  0  0  0  0
  128.9041  131.0745  157.0118 H   0  0  0  0  0  0  0  0  0  0  0  0
  130.0665  136.1396  158.0432 H   0  0  0  0  0  0  0  0  0  0  0  0
  128.6568  134.4825  160.1053 H   0  0  0  0  0  0  0  0  0  0  0  0
  129.6185  137.3674  159.9943 H   0  0  0  0  0  0  0  0  0  0  0  0
  128.6510  135.5187  162.2418 H   0  0  0  0  0  0  0  0  0  0  0  0
  127.5266  136.8040  161.7398 H   0  0  0  0  0  0  0  0  0  0  0  0
  129.2282  137.2563  163.5979 H   0  0  0  0  0  0  0  0  0  0  0  0
  128.6623  138.9749  161.2818 H   0  0  0  0  0  0  0  0  0  0  0  0
  126.1448  137.7592  162.5246 H   0  0  0  0  0  0  0  0  0  0  0  0
  124.0523  137.7940  163.4351 H   0  0  0  0  0  0  0  0  0  0  0  0
  124.9386  140.5409  165.5378 H   0  0  0  0  0  0  0  0  0  0  0  0
  127.1758  141.5541  165.5070 H   0  0  0  0  0  0  0  0  0  0  0  0
  129.6614  142.2893  165.1195 H   0  0  0  0  0  0  0  0  0  0  0  0
  131.9965  142.6287  164.4378 H   0  0  0  0  0  0  0  0  0  0  0  0
  133.7124  141.9480  163.0986 H   0  0  0  0  0  0  0  0  0  0  0  0
  131.6662  139.3983  161.6582 H   0  0  0  0  0  0  0  0  0  0  0  0
  1  2  1  0
  1 29  1  0
  1 30  1  0
  1 31  1  0
  2 27  1  0
  2  3  2  0
  3  4  1  0
  3 32  1  0
  4  5  1  0
  4  6  1  0
  6  7  1  0
  6 27  2  0
  7  8  1  0
  7 33  1  0
  8  9  2  0
  8 34  1  0
  9 10  1  0
  9 35  1  0
 10 11  1  0
 10 36  1  0
 10 37  1  0
 11 12  1  0
 11 38  1  0
 12 26  1  0
 12 13  1  0
 12 39  1  0
 13 19  1  0
 13 14  2  0
 14 15  1  0
 14 40  1  0
 15 16  1  0
 15 17  2  0
 16 41  1  0
 17 18  1  0
 17 42  1  0
 18 19  2  0
 18 43  1  0
 19 20  1  0
 20 26  2  0
 20 21  1  0
 21 22  2  0
 21 44  1  0
 22 23  1  0
 22 45  1  0
 23 24  1  0
 23 25  2  0
 24 46  1  0
 25 26  1  0
 25 47  1  0
 27 28  1  0
M  CHG  1  27   1
M  END
>  <DOCK_score>  (1) 
-48.480724

>  <SMILES>  (1) 
Cc1c[nH]c(NC=CCNC2c3cc(O)ccc3-c3ccc(O)cc32)[nH+]1

$$$$
