F[C@H](CNc1[nH]cc(-c2ccccc2)[nH+]1)Sc1ccc(-c2c[nH]c(SC3CC=CC3)n2)cc1
     RDKit          3D

 58 62  0  0  1  0  0  0  0  0999 V2000
  131.0235  133.4792  161.0665 F   0  0  0  0  0  0  0  0  0  0  0  0
  130.7430  134.8360  161.2608 C   0  0  2  0  0  0  0  0  0  0  0  0
  130.2998  134.9778  162.2464 H   0  0  0  0  0  0  0  0  0  0  0  0
  129.7627  135.3129  160.1874 C   0  0  0  0  0  0  0  0  0  0  0  0
  130.3584  135.1222  158.8625 N   0  0  0  0  0  0  0  0  0  0  0  0
  130.1653  133.9325  158.1815 C   0  0  0  0  0  0  0  0  0  0  0  0
  129.4511  132.8664  158.6349 N   0  0  0  0  0  0  0  0  0  0  0  0
  128.9896  132.8041  159.4858 H   0  0  0  0  0  0  0  0  0  0  0  0
  129.5017  131.8961  157.6638 C   0  0  0  0  0  0  0  0  0  0  0  0
  130.2518  132.3934  156.6494 C   0  0  0  0  0  0  0  0  0  0  0  0
  130.5831  131.6935  155.3843 C   0  0  0  0  0  0  0  0  0  0  0  0
  130.1891  132.2344  154.1617 C   0  0  0  0  0  0  0  0  0  0  0  0
  130.5055  131.5820  152.9875 C   0  0  0  0  0  0  0  0  0  0  0  0
  131.2016  130.3871  153.0231 C   0  0  0  0  0  0  0  0  0  0  0  0
  131.5902  129.8427  154.2338 C   0  0  0  0  0  0  0  0  0  0  0  0
  131.2846  130.4894  155.4139 C   0  0  0  0  0  0  0  0  0  0  0  0
  130.6448  133.6449  156.9962 N   0  0  0  0  0  0  0  0  0  0  0  0
  131.1932  134.2328  156.4534 H   0  0  0  0  0  0  0  0  0  0  0  0
  132.2793  135.7936  161.1451 S   0  0  0  0  0  0  0  0  0  0  0  0
  133.0101  135.5638  162.7318 C   0  0  0  0  0  0  0  0  0  0  0  0
  132.3320  135.9738  163.8745 C   0  0  0  0  0  0  0  0  0  0  0  0
  132.9025  135.7959  165.1169 C   0  0  0  0  0  0  0  0  0  0  0  0
  134.1599  135.2038  165.2271 C   0  0  0  0  0  0  0  0  0  0  0  0
  134.7755  135.0112  166.5631 C   0  0  0  0  0  0  0  0  0  0  0  0
  135.9858  134.4520  166.8105 C   0  0  0  0  0  0  0  0  0  0  0  0
  136.1605  134.4660  168.1742 N   0  0  0  0  0  0  0  0  0  0  0  0
  136.9308  134.1298  168.6585 H   0  0  0  0  0  0  0  0  0  0  0  0
  135.0537  135.0421  168.7189 C   0  0  0  0  0  0  0  0  0  0  0  0
  134.7744  135.3060  170.4386 S   0  0  0  0  0  0  0  0  0  0  0  0
  133.1441  136.0897  170.3757 C   0  0  0  0  0  0  0  0  0  0  0  0
  132.7722  136.7079  171.7435 C   0  0  0  0  0  0  0  0  0  0  0  0
  131.2886  136.4561  171.8873 C   0  0  0  0  0  0  0  0  0  0  0  0
  130.8825  135.5441  171.0465 C   0  0  0  0  0  0  0  0  0  0  0  0
  132.0272  135.0343  170.2021 C   0  0  0  0  0  0  0  0  0  0  0  0
  134.2272  135.3634  167.7526 N   0  0  0  0  0  0  0  0  0  0  0  0
  134.8404  134.7983  164.0800 C   0  0  0  0  0  0  0  0  0  0  0  0
  134.2643  134.9732  162.8397 C   0  0  0  0  0  0  0  0  0  0  0  0
  128.8396  134.7374  160.2569 H   0  0  0  0  0  0  0  0  0  0  0  0
  129.5441  136.3700  160.3387 H   0  0  0  0  0  0  0  0  0  0  0  0
  130.8881  135.8295  158.4627 H   0  0  0  0  0  0  0  0  0  0  0  0
  129.0371  130.9220  157.7029 H   0  0  0  0  0  0  0  0  0  0  0  0
  129.6413  133.1647  154.1330 H   0  0  0  0  0  0  0  0  0  0  0  0
  130.2052  132.0029  152.0392 H   0  0  0  0  0  0  0  0  0  0  0  0
  131.4428  129.8774  152.1019 H   0  0  0  0  0  0  0  0  0  0  0  0
  132.1341  128.9099  154.2556 H   0  0  0  0  0  0  0  0  0  0  0  0
  131.5889  130.0638  156.3588 H   0  0  0  0  0  0  0  0  0  0  0  0
  131.3580  136.4324  163.7886 H   0  0  0  0  0  0  0  0  0  0  0  0
  132.3759  136.1151  166.0040 H   0  0  0  0  0  0  0  0  0  0  0  0
  136.6782  134.0656  166.0771 H   0  0  0  0  0  0  0  0  0  0  0  0
  133.1022  136.8376  169.5839 H   0  0  0  0  0  0  0  0  0  0  0  0
  133.3206  136.2134  172.5453 H   0  0  0  0  0  0  0  0  0  0  0  0
  132.9785  137.7781  171.7451 H   0  0  0  0  0  0  0  0  0  0  0  0
  130.6485  136.9651  172.5927 H   0  0  0  0  0  0  0  0  0  0  0  0
  129.8623  135.1993  170.9650 H   0  0  0  0  0  0  0  0  0  0  0  0
  131.7272  134.9677  169.1564 H   0  0  0  0  0  0  0  0  0  0  0  0
  132.3639  134.0623  170.5627 H   0  0  0  0  0  0  0  0  0  0  0  0
  135.8166  134.3435  164.1630 H   0  0  0  0  0  0  0  0  0  0  0  0
  134.7894  134.6554  161.9511 H   0  0  0  0  0  0  0  0  0  0  0  0
  1  2  1  0
  2  3  1  1
  2  4  1  0
  2 19  1  0
  4  5  1  0
  4 38  1  0
  4 39  1  0
  5 40  1  0
  6  5  1  0
  6 17  2  0
  6  7  1  0
  7  8  1  0
  7  9  1  0
  9 10  2  0
  9 41  1  0
 10 11  1  0
 10 17  1  0
 11 16  1  0
 11 12  2  0
 12 13  1  0
 12 42  1  0
 13 14  2  0
 13 43  1  0
 14 15  1  0
 14 44  1  0
 15 16  2  0
 15 45  1  0
 16 46  1  0
 17 18  1  0
 19 20  1  0
 20 37  1  0
 20 21  2  0
 21 22  1  0
 21 47  1  0
 22 23  2  0
 22 48  1  0
 23 24  1  0
 23 36  1  0
 24 35  1  0
 24 25  2  0
 25 26  1  0
 25 49  1  0
 26 27  1  0
 26 28  1  0
 28 29  1  0
 28 35  2  0
 29 30  1  0
 30 34  1  0
 30 31  1  0
 30 50  1  0
 31 32  1  0
 31 51  1  0
 31 52  1  0
 32 33  2  0
 32 53  1  0
 33 34  1  0
 33 54  1  0
 34 55  1  0
 34 56  1  0
 36 37  2  0
 36 57  1  0
 37 58  1  0
M  CHG  1  17   1
M  END
>  <DOCK_score>  (1) 
-58.704903

>  <SMILES>  (1) 
F[C@H](CNc1[nH]cc(-c2ccccc2)[nH+]1)Sc1ccc(-c2c[nH]c(SC3CC=CC3)n2)cc1

$$$$
