O=C(NC[C@@H]1C=CCC(Cc2ccccc2O)=C1)NC1CC[NH2+]C2(CC2)C1
     RDKit          3D

 57 60  0  0  1  0  0  0  0  0999 V2000
  133.0131  136.8410  162.0410 O   0  0  0  0  0  0  0  0  0  0  0  0
  132.5106  136.9123  160.9362 C   0  0  0  0  0  0  0  0  0  0  0  0
  131.8584  135.8505  160.4227 N   0  0  0  0  0  0  0  0  0  0  0  0
  131.7549  134.6104  161.1958 C   0  0  0  0  0  0  0  0  0  0  0  0
  130.9717  133.5715  160.3907 C   0  0  2  0  0  0  0  0  0  0  0  0
  130.8980  132.6516  160.9707 H   0  0  0  0  0  0  0  0  0  0  0  0
  131.7020  133.2879  159.1125 C   0  0  0  0  0  0  0  0  0  0  0  0
  131.0950  133.1230  157.9767 C   0  0  0  0  0  0  0  0  0  0  0  0
  129.6049  133.2010  157.8324 C   0  0  0  0  0  0  0  0  0  0  0  0
  128.9862  133.9311  158.9864 C   0  0  0  0  0  0  0  0  0  0  0  0
  127.6000  134.4984  158.8208 C   0  0  0  0  0  0  0  0  0  0  0  0
  126.6790  133.8799  159.8410 C   0  0  0  0  0  0  0  0  0  0  0  0
  126.7069  132.5161  160.0607 C   0  0  0  0  0  0  0  0  0  0  0  0
  125.8654  131.9489  160.9994 C   0  0  0  0  0  0  0  0  0  0  0  0
  124.9872  132.7430  161.7139 C   0  0  0  0  0  0  0  0  0  0  0  0
  124.9518  134.1062  161.4941 C   0  0  0  0  0  0  0  0  0  0  0  0
  125.7987  134.6787  160.5559 C   0  0  0  0  0  0  0  0  0  0  0  0
  125.7662  136.0198  160.3382 O   0  0  0  0  0  0  0  0  0  0  0  0
  129.5929  134.0952  160.1223 C   0  0  0  0  0  0  0  0  0  0  0  0
  132.6058  138.0533  160.2248 N   0  0  0  0  0  0  0  0  0  0  0  0
  133.3147  139.2074  160.7831 C   0  0  1  0  0  0  0  0  0  0  0  0
  132.6428  139.6382  162.0894 C   0  0  0  0  0  0  0  0  0  0  0  0
  133.3867  140.8382  162.6775 C   0  0  0  0  0  0  0  0  0  0  0  0
  134.7633  140.4512  163.0147 N   0  0  0  0  0  0  0  0  0  0  0  0
  135.2529  141.2469  163.3956 H   0  0  0  0  0  0  0  0  0  0  0  0
  134.7465  139.7076  163.6963 H   0  0  0  0  0  0  0  0  0  0  0  0
  135.4495  139.9883  161.8006 C   0  0  0  0  0  0  0  0  0  0  0  0
  136.9770  140.0419  161.7824 C   0  0  0  0  0  0  0  0  0  0  0  0
  136.1662  141.0352  160.9472 C   0  0  0  0  0  0  0  0  0  0  0  0
  134.7705  138.8241  161.0726 C   0  0  0  0  0  0  0  0  0  0  0  0
  131.4576  135.9074  159.5411 H   0  0  0  0  0  0  0  0  0  0  0  0
  131.2367  134.8093  162.1339 H   0  0  0  0  0  0  0  0  0  0  0  0
  132.7541  134.2291  161.4064 H   0  0  0  0  0  0  0  0  0  0  0  0
  132.7793  133.2174  159.1376 H   0  0  0  0  0  0  0  0  0  0  0  0
  131.6893  132.9212  157.0978 H   0  0  0  0  0  0  0  0  0  0  0  0
  129.1968  132.1913  157.7882 H   0  0  0  0  0  0  0  0  0  0  0  0
  129.3625  133.7242  156.9073 H   0  0  0  0  0  0  0  0  0  0  0  0
  127.6296  135.5783  158.9656 H   0  0  0  0  0  0  0  0  0  0  0  0
  127.2337  134.2761  157.8186 H   0  0  0  0  0  0  0  0  0  0  0  0
  127.3892  131.8933  159.5014 H   0  0  0  0  0  0  0  0  0  0  0  0
  125.8916  130.8831  161.1727 H   0  0  0  0  0  0  0  0  0  0  0  0
  124.3281  132.2969  162.4440 H   0  0  0  0  0  0  0  0  0  0  0  0
  124.2657  134.7260  162.0522 H   0  0  0  0  0  0  0  0  0  0  0  0
  125.1212  136.4910  160.8832 H   0  0  0  0  0  0  0  0  0  0  0  0
  129.0824  134.6324  160.9080 H   0  0  0  0  0  0  0  0  0  0  0  0
  132.2049  138.1100  159.3435 H   0  0  0  0  0  0  0  0  0  0  0  0
  133.2880  140.0315  160.0703 H   0  0  0  0  0  0  0  0  0  0  0  0
  131.6073  139.9147  161.8911 H   0  0  0  0  0  0  0  0  0  0  0  0
  132.6675  138.8120  162.8001 H   0  0  0  0  0  0  0  0  0  0  0  0
  133.4060  141.6465  161.9465 H   0  0  0  0  0  0  0  0  0  0  0  0
  132.8742  141.1766  163.5781 H   0  0  0  0  0  0  0  0  0  0  0  0
  137.4778  140.4234  162.6721 H   0  0  0  0  0  0  0  0  0  0  0  0
  137.5022  139.2483  161.2509 H   0  0  0  0  0  0  0  0  0  0  0  0
  136.1578  140.8949  159.8663 H   0  0  0  0  0  0  0  0  0  0  0  0
  136.1330  142.0702  161.2872 H   0  0  0  0  0  0  0  0  0  0  0  0
  134.7962  137.9346  161.7019 H   0  0  0  0  0  0  0  0  0  0  0  0
  135.2899  138.6264  160.1348 H   0  0  0  0  0  0  0  0  0  0  0  0
  1  2  2  0
  2  3  1  0
  2 20  1  0
  3  4  1  0
  3 31  1  0
  4  5  1  0
  4 32  1  0
  4 33  1  0
  5  6  1  1
  5 19  1  0
  5  7  1  0
  7  8  2  0
  7 34  1  0
  8  9  1  0
  8 35  1  0
  9 10  1  0
  9 36  1  0
  9 37  1  0
 10 11  1  0
 10 19  2  0
 11 12  1  0
 11 38  1  0
 11 39  1  0
 12 17  1  0
 12 13  2  0
 13 14  1  0
 13 40  1  0
 14 15  2  0
 14 41  1  0
 15 16  1  0
 15 42  1  0
 16 17  2  0
 16 43  1  0
 17 18  1  0
 18 44  1  0
 19 45  1  0
 20 21  1  0
 20 46  1  0
 21 30  1  0
 21 22  1  0
 21 47  1  6
 22 23  1  0
 22 48  1  0
 22 49  1  0
 23 24  1  0
 23 50  1  0
 23 51  1  0
 24 25  1  0
 24 26  1  0
 24 27  1  0
 27 29  1  0
 27 28  1  0
 27 30  1  0
 28 29  1  0
 28 52  1  0
 28 53  1  0
 29 54  1  0
 29 55  1  0
 30 56  1  0
 30 57  1  0
M  CHG  1  24   1
M  END
>  <DOCK_score>  (1) 
-44.357796

>  <SMILES>  (1) 
O=C(NC[C@@H]1C=CCC(Cc2ccccc2O)=C1)NC1CC[NH2+]C2(CC2)C1

$$$$
