O=C(NCc1cccc(-c2cccc(-c3cccc4ccccc34)c2)c1)c1n[nH]cc1[C@H]1CCC[NH2+]C1
     RDKit          3D

 68 73  0  0  1  0  0  0  0  0999 V2000
  129.8267  136.5295  160.1905 O   0  0  0  0  0  0  0  0  0  0  0  0
  128.8038  136.3598  160.8251 C   0  0  0  0  0  0  0  0  0  0  0  0
  128.5877  137.0616  161.9552 N   0  0  0  0  0  0  0  0  0  0  0  0
  129.5856  138.0286  162.4191 C   0  0  0  0  0  0  0  0  0  0  0  0
  130.5655  137.3397  163.3337 C   0  0  0  0  0  0  0  0  0  0  0  0
  130.1062  136.4846  164.3194 C   0  0  0  0  0  0  0  0  0  0  0  0
  131.0002  135.8454  165.1591 C   0  0  0  0  0  0  0  0  0  0  0  0
  132.3562  136.0660  165.0243 C   0  0  0  0  0  0  0  0  0  0  0  0
  132.8239  136.9302  164.0367 C   0  0  0  0  0  0  0  0  0  0  0  0
  134.2805  137.1709  163.8868 C   0  0  0  0  0  0  0  0  0  0  0  0
  134.8122  137.4791  162.6351 C   0  0  0  0  0  0  0  0  0  0  0  0
  136.1674  137.7035  162.4933 C   0  0  0  0  0  0  0  0  0  0  0  0
  137.0043  137.6249  163.5890 C   0  0  0  0  0  0  0  0  0  0  0  0
  136.4839  137.3172  164.8463 C   0  0  0  0  0  0  0  0  0  0  0  0
  137.3824  137.2321  166.0212 C   0  0  0  0  0  0  0  0  0  0  0  0
  137.9809  136.0309  166.3581 C   0  0  0  0  0  0  0  0  0  0  0  0
  138.8256  135.9432  167.4588 C   0  0  0  0  0  0  0  0  0  0  0  0
  139.0872  137.0319  168.2345 C   0  0  0  0  0  0  0  0  0  0  0  0
  138.5003  138.2715  167.9289 C   0  0  0  0  0  0  0  0  0  0  0  0
  138.7535  139.4101  168.7136 C   0  0  0  0  0  0  0  0  0  0  0  0
  138.1685  140.5955  168.3894 C   0  0  0  0  0  0  0  0  0  0  0  0
  137.3199  140.6987  167.2892 C   0  0  0  0  0  0  0  0  0  0  0  0
  137.0523  139.6162  166.5071 C   0  0  0  0  0  0  0  0  0  0  0  0
  137.6423  138.3797  166.8071 C   0  0  0  0  0  0  0  0  0  0  0  0
  135.1170  137.0948  164.9955 C   0  0  0  0  0  0  0  0  0  0  0  0
  131.9189  137.5674  163.1900 C   0  0  0  0  0  0  0  0  0  0  0  0
  127.7978  135.3846  160.3575 C   0  0  0  0  0  0  0  0  0  0  0  0
  126.4948  135.4508  160.5451 N   0  0  0  0  0  0  0  0  0  0  0  0
  125.9201  134.4340  160.0100 N   0  0  0  0  0  0  0  0  0  0  0  0
  124.9649  134.2660  160.0234 H   0  0  0  0  0  0  0  0  0  0  0  0
  126.8369  133.6334  159.4254 C   0  0  0  0  0  0  0  0  0  0  0  0
  128.0491  134.2036  159.6197 C   0  0  0  0  0  0  0  0  0  0  0  0
  129.3857  133.6862  159.1539 C   0  0  1  0  0  0  0  0  0  0  0  0
  130.1613  133.9986  159.8531 H   0  0  0  0  0  0  0  0  0  0  0  0
  129.3458  132.1570  159.0839 C   0  0  0  0  0  0  0  0  0  0  0  0
  130.6813  131.6459  158.5355 C   0  0  0  0  0  0  0  0  0  0  0  0
  130.9422  132.2824  157.1686 C   0  0  0  0  0  0  0  0  0  0  0  0
  130.9951  133.7428  157.3069 N   0  0  0  0  0  0  0  0  0  0  0  0
  131.7059  133.9904  157.9789 H   0  0  0  0  0  0  0  0  0  0  0  0
  131.2189  134.1562  156.4141 H   0  0  0  0  0  0  0  0  0  0  0  0
  129.6947  134.2471  157.7642 C   0  0  0  0  0  0  0  0  0  0  0  0
  127.7715  136.9262  162.4616 H   0  0  0  0  0  0  0  0  0  0  0  0
  130.1172  138.4417  161.5620 H   0  0  0  0  0  0  0  0  0  0  0  0
  129.0876  138.8332  162.9601 H   0  0  0  0  0  0  0  0  0  0  0  0
  129.0459  136.3127  164.4313 H   0  0  0  0  0  0  0  0  0  0  0  0
  130.6366  135.1753  165.9241 H   0  0  0  0  0  0  0  0  0  0  0  0
  133.0531  135.5692  165.6829 H   0  0  0  0  0  0  0  0  0  0  0  0
  134.1627  137.5425  161.7745 H   0  0  0  0  0  0  0  0  0  0  0  0
  136.5745  137.9418  161.5218 H   0  0  0  0  0  0  0  0  0  0  0  0
  138.0632  137.8017  163.4724 H   0  0  0  0  0  0  0  0  0  0  0  0
  137.7900  135.1524  165.7596 H   0  0  0  0  0  0  0  0  0  0  0  0
  139.2820  134.9954  167.7033 H   0  0  0  0  0  0  0  0  0  0  0  0
  139.7462  136.9422  169.0855 H   0  0  0  0  0  0  0  0  0  0  0  0
  139.4087  139.3445  169.5698 H   0  0  0  0  0  0  0  0  0  0  0  0
  138.3646  141.4688  168.9939 H   0  0  0  0  0  0  0  0  0  0  0  0
  136.8675  141.6506  167.0533 H   0  0  0  0  0  0  0  0  0  0  0  0
  136.3929  139.7107  165.6570 H   0  0  0  0  0  0  0  0  0  0  0  0
  134.7087  136.8607  165.9675 H   0  0  0  0  0  0  0  0  0  0  0  0
  132.2762  138.2386  162.4230 H   0  0  0  0  0  0  0  0  0  0  0  0
  126.6398  132.7100  158.9011 H   0  0  0  0  0  0  0  0  0  0  0  0
  128.5370  131.8432  158.4242 H   0  0  0  0  0  0  0  0  0  0  0  0
  129.1823  131.7506  160.0820 H   0  0  0  0  0  0  0  0  0  0  0  0
  131.4839  131.9158  159.2219 H   0  0  0  0  0  0  0  0  0  0  0  0
  130.6407  130.5617  158.4305 H   0  0  0  0  0  0  0  0  0  0  0  0
  131.8921  131.9205  156.7753 H   0  0  0  0  0  0  0  0  0  0  0  0
  130.1391  132.0120  156.4832 H   0  0  0  0  0  0  0  0  0  0  0  0
  129.7235  135.3357  157.8103 H   0  0  0  0  0  0  0  0  0  0  0  0
  128.9181  133.9339  157.0661 H   0  0  0  0  0  0  0  0  0  0  0  0
  1  2  2  0
  2  3  1  0
  2 27  1  0
  3  4  1  0
  3 42  1  0
  4  5  1  0
  4 43  1  0
  4 44  1  0
  5 26  1  0
  5  6  2  0
  6  7  1  0
  6 45  1  0
  7  8  2  0
  7 46  1  0
  8  9  1  0
  8 47  1  0
  9 10  1  0
  9 26  2  0
 10 25  1  0
 10 11  2  0
 11 12  1  0
 11 48  1  0
 12 13  2  0
 12 49  1  0
 13 14  1  0
 13 50  1  0
 14 15  1  0
 14 25  2  0
 15 24  1  0
 15 16  2  0
 16 17  1  0
 16 51  1  0
 17 18  2  0
 17 52  1  0
 18 19  1  0
 18 53  1  0
 19 24  2  0
 19 20  1  0
 20 21  2  0
 20 54  1  0
 21 22  1  0
 21 55  1  0
 22 23  2  0
 22 56  1  0
 23 24  1  0
 23 57  1  0
 25 58  1  0
 26 59  1  0
 27 32  1  0
 27 28  2  0
 28 29  1  0
 29 30  1  0
 29 31  1  0
 31 32  2  0
 31 60  1  0
 32 33  1  0
 33 34  1  1
 33 41  1  0
 33 35  1  0
 35 36  1  0
 35 61  1  0
 35 62  1  0
 36 37  1  0
 36 63  1  0
 36 64  1  0
 37 38  1  0
 37 65  1  0
 37 66  1  0
 38 39  1  0
 38 40  1  0
 38 41  1  0
 41 67  1  0
 41 68  1  0
M  CHG  1  38   1
M  END
>  <DOCK_score>  (1) 
-41.398262

>  <SMILES>  (1) 
O=C(NCc1cccc(-c2cccc(-c3cccc4ccccc34)c2)c1)c1n[nH]cc1[C@H]1CCC[NH2+]C1

$$$$
