N#Cc1ccc2c(c1)C[C@H](Nc1ccc(-c3n[nH]cc3C[NH2+]CC3=CCOCC3)o1)C2
     RDKit          3D

 57 61  0  0  1  0  0  0  0  0999 V2000
  127.0953  137.7565  169.9859 N   0  0  0  0  0  0  0  0  0  0  0  0
  127.2448  137.4004  168.9176 C   0  0  0  0  0  0  0  0  0  0  0  0
  127.4336  136.9517  167.5709 C   0  0  0  0  0  0  0  0  0  0  0  0
  128.5433  136.1713  167.2395 C   0  0  0  0  0  0  0  0  0  0  0  0
  128.7162  135.7437  165.9412 C   0  0  0  0  0  0  0  0  0  0  0  0
  127.7952  136.0832  164.9615 C   0  0  0  0  0  0  0  0  0  0  0  0
  126.6934  136.8561  165.2832 C   0  0  0  0  0  0  0  0  0  0  0  0
  126.5095  137.2908  166.5824 C   0  0  0  0  0  0  0  0  0  0  0  0
  125.8501  137.0842  164.0467 C   0  0  0  0  0  0  0  0  0  0  0  0
  126.7745  136.7433  162.8588 C   0  0  2  0  0  0  0  0  0  0  0  0
  127.2929  137.6336  162.5032 H   0  0  0  0  0  0  0  0  0  0  0  0
  126.0170  136.1158  161.7730 N   0  0  0  0  0  0  0  0  0  0  0  0
  126.6375  135.1994  160.9320 C   0  0  0  0  0  0  0  0  0  0  0  0
  126.0303  134.1593  160.3079 C   0  0  0  0  0  0  0  0  0  0  0  0
  127.0215  133.4930  159.5606 C   0  0  0  0  0  0  0  0  0  0  0  0
  128.1865  134.1620  159.7670 C   0  0  0  0  0  0  0  0  0  0  0  0
  129.4980  133.8177  159.1801 C   0  0  0  0  0  0  0  0  0  0  0  0
  129.7438  132.8100  158.3662 N   0  0  0  0  0  0  0  0  0  0  0  0
  131.1064  132.8352  158.0427 N   0  0  0  0  0  0  0  0  0  0  0  0
  131.5646  132.2087  157.4606 H   0  0  0  0  0  0  0  0  0  0  0  0
  131.6734  133.8787  158.6859 C   0  0  0  0  0  0  0  0  0  0  0  0
  130.7097  134.5088  159.3911 C   0  0  0  0  0  0  0  0  0  0  0  0
  130.8964  135.7298  160.2546 C   0  0  0  0  0  0  0  0  0  0  0  0
  130.6840  136.9380  159.4465 N   0  0  0  0  0  0  0  0  0  0  0  0
  131.3497  136.9571  158.6885 H   0  0  0  0  0  0  0  0  0  0  0  0
  129.7473  136.9314  159.0715 H   0  0  0  0  0  0  0  0  0  0  0  0
  130.8659  138.1283  160.2881 C   0  0  0  0  0  0  0  0  0  0  0  0
  132.2649  138.1381  160.8484 C   0  0  0  0  0  0  0  0  0  0  0  0
  132.4217  138.1220  162.1386 C   0  0  0  0  0  0  0  0  0  0  0  0
  133.7725  138.1332  162.7959 C   0  0  0  0  0  0  0  0  0  0  0  0
  134.7875  137.8124  161.8426 O   0  0  0  0  0  0  0  0  0  0  0  0
  134.6948  138.5898  160.6424 C   0  0  0  0  0  0  0  0  0  0  0  0
  133.4261  138.1724  159.8934 C   0  0  0  0  0  0  0  0  0  0  0  0
  127.9409  135.1914  160.6047 O   0  0  0  0  0  0  0  0  0  0  0  0
  127.7693  135.7421  163.4833 C   0  0  0  0  0  0  0  0  0  0  0  0
  129.2635  135.9037  167.9985 H   0  0  0  0  0  0  0  0  0  0  0  0
  129.5746  135.1406  165.6846 H   0  0  0  0  0  0  0  0  0  0  0  0
  125.6491  137.8937  166.8326 H   0  0  0  0  0  0  0  0  0  0  0  0
  125.5328  138.1256  163.9921 H   0  0  0  0  0  0  0  0  0  0  0  0
  124.9823  136.4250  164.0521 H   0  0  0  0  0  0  0  0  0  0  0  0
  125.0826  136.3400  161.6410 H   0  0  0  0  0  0  0  0  0  0  0  0
  124.9858  133.8923  160.3720 H   0  0  0  0  0  0  0  0  0  0  0  0
  126.8824  132.6185  158.9422 H   0  0  0  0  0  0  0  0  0  0  0  0
  132.7149  134.1614  158.6416 H   0  0  0  0  0  0  0  0  0  0  0  0
  130.1773  135.7092  161.0735 H   0  0  0  0  0  0  0  0  0  0  0  0
  131.9082  135.7370  160.6598 H   0  0  0  0  0  0  0  0  0  0  0  0
  130.7083  139.0248  159.6887 H   0  0  0  0  0  0  0  0  0  0  0  0
  130.1467  138.1075  161.1070 H   0  0  0  0  0  0  0  0  0  0  0  0
  131.5425  138.0956  162.7653 H   0  0  0  0  0  0  0  0  0  0  0  0
  133.7904  137.4009  163.6031 H   0  0  0  0  0  0  0  0  0  0  0  0
  133.9612  139.1260  163.2045 H   0  0  0  0  0  0  0  0  0  0  0  0
  135.5680  138.4049  160.0169 H   0  0  0  0  0  0  0  0  0  0  0  0
  134.6407  139.6488  160.8943 H   0  0  0  0  0  0  0  0  0  0  0  0
  133.5694  137.1823  159.4604 H   0  0  0  0  0  0  0  0  0  0  0  0
  133.2213  138.8895  159.0984 H   0  0  0  0  0  0  0  0  0  0  0  0
  127.4188  134.7202  163.3381 H   0  0  0  0  0  0  0  0  0  0  0  0
  128.7591  135.8691  163.0448 H   0  0  0  0  0  0  0  0  0  0  0  0
  1  2  3  0
  2  3  1  0
  3  8  2  0
  3  4  1  0
  4  5  2  0
  4 36  1  0
  5  6  1  0
  5 37  1  0
  6 35  1  0
  6  7  2  0
  7  8  1  0
  7  9  1  0
  8 38  1  0
  9 10  1  0
  9 39  1  0
  9 40  1  0
 10 11  1  6
 10 12  1  0
 10 35  1  0
 12 13  1  0
 12 41  1  0
 13 34  1  0
 13 14  2  0
 14 15  1  0
 14 42  1  0
 15 16  2  0
 15 43  1  0
 16 17  1  0
 16 34  1  0
 17 22  1  0
 17 18  2  0
 18 19  1  0
 19 20  1  0
 19 21  1  0
 21 22  2  0
 21 44  1  0
 22 23  1  0
 23 24  1  0
 23 45  1  0
 23 46  1  0
 24 25  1  0
 24 26  1  0
 24 27  1  0
 27 28  1  0
 27 47  1  0
 27 48  1  0
 28 33  1  0
 28 29  2  0
 29 30  1  0
 29 49  1  0
 30 31  1  0
 30 50  1  0
 30 51  1  0
 31 32  1  0
 32 33  1  0
 32 52  1  0
 32 53  1  0
 33 54  1  0
 33 55  1  0
 35 56  1  0
 35 57  1  0
M  CHG  1  24   1
M  END
>  <DOCK_score>  (1) 
-45.177448

>  <SMILES>  (1) 
N#Cc1ccc2c(c1)C[C@H](Nc1ccc(-c3n[nH]cc3C[NH2+]CC3=CCOCC3)o1)C2

$$$$
