C[C@@H](CC1=CCC=CC1)NC(N[C@H]1CCC(=O)NC1)=[NH+]C1CCC1
     RDKit          3D

 55 57  0  0  1  0  0  0  0  0999 V2000
  131.4962  133.7074  162.1052 C   0  0  0  0  0  0  0  0  0  0  0  0
  131.7002  134.8122  161.0667 C   0  0  1  0  0  0  0  0  0  0  0  0
  131.1266  135.6929  161.3557 H   0  0  0  0  0  0  0  0  0  0  0  0
  133.1851  135.1730  160.9909 C   0  0  0  0  0  0  0  0  0  0  0  0
  133.6536  135.6577  162.3388 C   0  0  0  0  0  0  0  0  0  0  0  0
  134.6084  135.0101  162.9342 C   0  0  0  0  0  0  0  0  0  0  0  0
  135.1517  135.4121  164.2725 C   0  0  0  0  0  0  0  0  0  0  0  0
  134.1806  136.2842  165.0099 C   0  0  0  0  0  0  0  0  0  0  0  0
  133.2223  136.9286  164.4167 C   0  0  0  0  0  0  0  0  0  0  0  0
  132.9931  136.8633  162.9366 C   0  0  0  0  0  0  0  0  0  0  0  0
  131.2446  134.3410  159.7565 N   0  0  0  0  0  0  0  0  0  0  0  0
  129.9395  134.5370  159.3711 C   0  0  0  0  0  0  0  0  0  0  0  0
  129.0621  135.1754  160.2154 N   0  0  0  0  0  0  0  0  0  0  0  0
  127.6356  134.8439  160.1762 C   0  0  1  0  0  0  0  0  0  0  0  0
  127.2394  135.0503  159.1821 H   0  0  0  0  0  0  0  0  0  0  0  0
  127.4431  133.3593  160.5089 C   0  0  0  0  0  0  0  0  0  0  0  0
  125.9723  133.0003  160.2866 C   0  0  0  0  0  0  0  0  0  0  0  0
  125.0892  134.0112  160.9600 C   0  0  0  0  0  0  0  0  0  0  0  0
  123.9298  133.7173  161.1610 O   0  0  0  0  0  0  0  0  0  0  0  0
  125.5117  135.2150  161.3485 N   0  0  0  0  0  0  0  0  0  0  0  0
  126.8854  135.6824  161.2118 C   0  0  0  0  0  0  0  0  0  0  0  0
  129.5342  134.1180  158.2055 N   0  0  0  0  0  0  0  0  0  0  0  0
  128.6134  134.2563  157.9337 H   0  0  0  0  0  0  0  0  0  0  0  0
  130.4693  133.4379  157.3057 C   0  0  0  0  0  0  0  0  0  0  0  0
  129.8931  133.1716  155.9051 C   0  0  0  0  0  0  0  0  0  0  0  0
  130.5951  131.8046  155.9622 C   0  0  0  0  0  0  0  0  0  0  0  0
  130.5107  131.9104  157.4940 C   0  0  0  0  0  0  0  0  0  0  0  0
  130.4382  133.4503  162.1592 H   0  0  0  0  0  0  0  0  0  0  0  0
  132.0697  132.8267  161.8163 H   0  0  0  0  0  0  0  0  0  0  0  0
  131.8351  134.0580  163.0801 H   0  0  0  0  0  0  0  0  0  0  0  0
  133.7587  134.2923  160.7021 H   0  0  0  0  0  0  0  0  0  0  0  0
  133.3306  135.9601  160.2511 H   0  0  0  0  0  0  0  0  0  0  0  0
  135.0326  134.1472  162.4422 H   0  0  0  0  0  0  0  0  0  0  0  0
  136.0864  135.9556  164.1344 H   0  0  0  0  0  0  0  0  0  0  0  0
  135.3439  134.5147  164.8605 H   0  0  0  0  0  0  0  0  0  0  0  0
  134.2827  136.3806  166.0806 H   0  0  0  0  0  0  0  0  0  0  0  0
  132.5619  137.5385  165.0154 H   0  0  0  0  0  0  0  0  0  0  0  0
  133.4005  137.7613  162.4720 H   0  0  0  0  0  0  0  0  0  0  0  0
  131.9213  136.8161  162.7437 H   0  0  0  0  0  0  0  0  0  0  0  0
  131.8638  133.8908  159.1608 H   0  0  0  0  0  0  0  0  0  0  0  0
  129.3875  135.8452  160.8369 H   0  0  0  0  0  0  0  0  0  0  0  0
  128.0734  132.7528  159.8584 H   0  0  0  0  0  0  0  0  0  0  0  0
  127.7091  133.1791  161.5504 H   0  0  0  0  0  0  0  0  0  0  0  0
  125.7733  132.0122  160.7016 H   0  0  0  0  0  0  0  0  0  0  0  0
  125.7632  132.9924  159.2168 H   0  0  0  0  0  0  0  0  0  0  0  0
  124.8639  135.8173  161.7466 H   0  0  0  0  0  0  0  0  0  0  0  0
  127.3905  135.6026  162.1745 H   0  0  0  0  0  0  0  0  0  0  0  0
  126.8781  136.7251  160.8942 H   0  0  0  0  0  0  0  0  0  0  0  0
  131.4556  133.9016  157.2912 H   0  0  0  0  0  0  0  0  0  0  0  0
  130.2900  133.8345  155.1363 H   0  0  0  0  0  0  0  0  0  0  0  0
  128.8054  133.1033  155.8847 H   0  0  0  0  0  0  0  0  0  0  0  0
  130.0005  130.9906  155.5473 H   0  0  0  0  0  0  0  0  0  0  0  0
  131.6154  131.8215  155.5789 H   0  0  0  0  0  0  0  0  0  0  0  0
  129.5922  131.4967  157.9103 H   0  0  0  0  0  0  0  0  0  0  0  0
  131.4055  131.5568  158.0061 H   0  0  0  0  0  0  0  0  0  0  0  0
  1  2  1  0
  1 28  1  0
  1 29  1  0
  1 30  1  0
  2  3  1  1
  2  4  1  0
  2 11  1  0
  4  5  1  0
  4 31  1  0
  4 32  1  0
  5 10  1  0
  5  6  2  0
  6  7  1  0
  6 33  1  0
  7  8  1  0
  7 34  1  0
  7 35  1  0
  8  9  2  0
  8 36  1  0
  9 10  1  0
  9 37  1  0
 10 38  1  0
 10 39  1  0
 11 40  1  0
 12 11  1  0
 12 13  1  0
 12 22  2  0
 13 14  1  0
 13 41  1  0
 14 15  1  6
 14 21  1  0
 14 16  1  0
 16 17  1  0
 16 42  1  0
 16 43  1  0
 17 18  1  0
 17 44  1  0
 17 45  1  0
 18 19  2  0
 18 20  1  0
 20 21  1  0
 20 46  1  0
 21 47  1  0
 21 48  1  0
 22 23  1  0
 22 24  1  0
 24 27  1  0
 24 25  1  0
 24 49  1  0
 25 26  1  0
 25 50  1  0
 25 51  1  0
 26 27  1  0
 26 52  1  0
 26 53  1  0
 27 54  1  0
 27 55  1  0
M  CHG  1  22   1
M  END
>  <DOCK_score>  (1) 
-41.382793

>  <SMILES>  (1) 
C[C@@H](CC1=CCC=CC1)NC(N[C@H]1CCC(=O)NC1)=[NH+]C1CCC1

$$$$
