Cc1nn(C(C)C)cc1C[C@@H](Nc1[nH]cc(-c2cccnc2)[nH+]1)c1ccccc1
     RDKit          3D

 56 59  0  0  1  0  0  0  0  0999 V2000
  126.9557  136.0910  161.1567 C   0  0  0  0  0  0  0  0  0  0  0  0
  127.5808  137.1984  161.9654 C   0  0  0  0  0  0  0  0  0  0  0  0
  127.0862  137.7248  163.0564 N   0  0  0  0  0  0  0  0  0  0  0  0
  127.9633  138.7247  163.4964 N   0  0  0  0  0  0  0  0  0  0  0  0
  127.7846  139.5676  164.6812 C   0  0  0  0  0  0  0  0  0  0  0  0
  127.0150  140.8325  164.2959 C   0  0  0  0  0  0  0  0  0  0  0  0
  126.9980  138.7954  165.7425 C   0  0  0  0  0  0  0  0  0  0  0  0
  129.0016  138.7746  162.6358 C   0  0  0  0  0  0  0  0  0  0  0  0
  128.7916  137.8384  161.6815 C   0  0  0  0  0  0  0  0  0  0  0  0
  129.6989  137.5422  160.5153 C   0  0  0  0  0  0  0  0  0  0  0  0
  130.1584  136.0844  160.5842 C   0  0  1  0  0  0  0  0  0  0  0  0
  129.3257  135.4554  160.8986 H   0  0  0  0  0  0  0  0  0  0  0  0
  130.6223  135.6557  159.2624 N   0  0  0  0  0  0  0  0  0  0  0  0
  130.5010  134.3299  158.8826 C   0  0  0  0  0  0  0  0  0  0  0  0
  129.9763  133.3319  159.6447 N   0  0  0  0  0  0  0  0  0  0  0  0
  129.6230  133.4207  160.5437 H   0  0  0  0  0  0  0  0  0  0  0  0
  130.0370  132.1760  158.9048 C   0  0  0  0  0  0  0  0  0  0  0  0
  130.6039  132.4991  157.7160 C   0  0  0  0  0  0  0  0  0  0  0  0
  130.8759  131.5650  156.5962 C   0  0  0  0  0  0  0  0  0  0  0  0
  130.8555  132.0169  155.2734 C   0  0  0  0  0  0  0  0  0  0  0  0
  131.1204  131.1069  154.2648 C   0  0  0  0  0  0  0  0  0  0  0  0
  131.3844  129.7895  154.5942 C   0  0  0  0  0  0  0  0  0  0  0  0
  131.3918  129.3914  155.8516 N   0  0  0  0  0  0  0  0  0  0  0  0
  131.1503  130.2219  156.8454 C   0  0  0  0  0  0  0  0  0  0  0  0
  130.8776  133.8278  157.7320 N   0  0  0  0  0  0  0  0  0  0  0  0
  131.2870  134.3264  157.0077 H   0  0  0  0  0  0  0  0  0  0  0  0
  131.2852  135.9593  161.5771 C   0  0  0  0  0  0  0  0  0  0  0  0
  132.5946  136.1047  161.1584 C   0  0  0  0  0  0  0  0  0  0  0  0
  133.6281  135.9938  162.0698 C   0  0  0  0  0  0  0  0  0  0  0  0
  133.3526  135.7294  163.3983 C   0  0  0  0  0  0  0  0  0  0  0  0
  132.0433  135.5787  163.8159 C   0  0  0  0  0  0  0  0  0  0  0  0
  131.0097  135.6935  162.9052 C   0  0  0  0  0  0  0  0  0  0  0  0
  127.3058  135.1279  161.5280 H   0  0  0  0  0  0  0  0  0  0  0  0
  125.8707  136.1429  161.2471 H   0  0  0  0  0  0  0  0  0  0  0  0
  127.2387  136.2014  160.1098 H   0  0  0  0  0  0  0  0  0  0  0  0
  128.7603  139.8435  165.0813 H   0  0  0  0  0  0  0  0  0  0  0  0
  126.0394  140.5565  163.8959 H   0  0  0  0  0  0  0  0  0  0  0  0
  126.8822  141.4597  165.1775 H   0  0  0  0  0  0  0  0  0  0  0  0
  127.5754  141.3825  163.5399 H   0  0  0  0  0  0  0  0  0  0  0  0
  127.5463  137.8943  166.0171 H   0  0  0  0  0  0  0  0  0  0  0  0
  126.8652  139.4226  166.6240 H   0  0  0  0  0  0  0  0  0  0  0  0
  126.0224  138.5195  165.3424 H   0  0  0  0  0  0  0  0  0  0  0  0
  129.8482  139.4423  162.6975 H   0  0  0  0  0  0  0  0  0  0  0  0
  130.5677  138.1992  160.5548 H   0  0  0  0  0  0  0  0  0  0  0  0
  129.1591  137.7093  159.5833 H   0  0  0  0  0  0  0  0  0  0  0  0
  131.0145  136.3006  158.6532 H   0  0  0  0  0  0  0  0  0  0  0  0
  129.7012  131.1967  159.2126 H   0  0  0  0  0  0  0  0  0  0  0  0
  130.6422  133.0506  155.0446 H   0  0  0  0  0  0  0  0  0  0  0  0
  131.1168  131.4209  153.2316 H   0  0  0  0  0  0  0  0  0  0  0  0
  131.5876  129.0760  153.8095 H   0  0  0  0  0  0  0  0  0  0  0  0
  131.1657  129.8584  157.8622 H   0  0  0  0  0  0  0  0  0  0  0  0
  132.8101  136.3079  160.1198 H   0  0  0  0  0  0  0  0  0  0  0  0
  134.6508  136.1111  161.7434 H   0  0  0  0  0  0  0  0  0  0  0  0
  134.1600  135.6401  164.1099 H   0  0  0  0  0  0  0  0  0  0  0  0
  131.8281  135.3718  164.8538 H   0  0  0  0  0  0  0  0  0  0  0  0
  129.9870  135.5758  163.2316 H   0  0  0  0  0  0  0  0  0  0  0  0
  1  2  1  0
  1 33  1  0
  1 34  1  0
  1 35  1  0
  2  9  1  0
  2  3  2  0
  3  4  1  0
  4  5  1  0
  4  8  1  0
  5  6  1  0
  5  7  1  0
  5 36  1  0
  6 37  1  0
  6 38  1  0
  6 39  1  0
  7 40  1  0
  7 41  1  0
  7 42  1  0
  8  9  2  0
  8 43  1  0
  9 10  1  0
 10 11  1  0
 10 44  1  0
 10 45  1  0
 11 12  1  1
 11 13  1  0
 11 27  1  0
 13 46  1  0
 14 13  1  0
 14 25  2  0
 14 15  1  0
 15 16  1  0
 15 17  1  0
 17 18  2  0
 17 47  1  0
 18 19  1  0
 18 25  1  0
 19 24  1  0
 19 20  2  0
 20 21  1  0
 20 48  1  0
 21 22  2  0
 21 49  1  0
 22 23  1  0
 22 50  1  0
 23 24  2  0
 24 51  1  0
 25 26  1  0
 27 32  1  0
 27 28  2  0
 28 29  1  0
 28 52  1  0
 29 30  2  0
 29 53  1  0
 30 31  1  0
 30 54  1  0
 31 32  2  0
 31 55  1  0
 32 56  1  0
M  CHG  1  25   1
M  END
>  <DOCK_score>  (1) 
-53.044674

>  <SMILES>  (1) 
Cc1nn(C(C)C)cc1C[C@@H](Nc1[nH]cc(-c2cccnc2)[nH+]1)c1ccccc1

$$$$
