O=C1CC[C@H](NC(NC2CC=CC2)=[NH+]C2CC=CC2)CN1
     RDKit          3D

 46 48  0  0  1  0  0  0  0  0999 V2000
  124.1362  133.7059  161.6438 O   0  0  0  0  0  0  0  0  0  0  0  0
  125.3099  133.9702  161.4906 C   0  0  0  0  0  0  0  0  0  0  0  0
  126.2225  132.8880  160.9893 C   0  0  0  0  0  0  0  0  0  0  0  0
  127.6792  133.2614  161.2747 C   0  0  0  0  0  0  0  0  0  0  0  0
  127.9143  134.6994  160.7968 C   0  0  2  0  0  0  0  0  0  0  0  0
  127.5860  134.7991  159.7621 H   0  0  0  0  0  0  0  0  0  0  0  0
  129.3394  135.0238  160.8970 N   0  0  0  0  0  0  0  0  0  0  0  0
  130.1722  134.7809  159.8394 C   0  0  0  0  0  0  0  0  0  0  0  0
  129.6874  134.2493  158.7184 N   0  0  0  0  0  0  0  0  0  0  0  0
  130.5406  133.4034  157.8802 C   0  0  0  0  0  0  0  0  0  0  0  0
  129.7230  132.7391  156.7481 C   0  0  0  0  0  0  0  0  0  0  0  0
  130.3133  131.3551  156.6093 C   0  0  0  0  0  0  0  0  0  0  0  0
  131.0305  131.0431  157.6542 C   0  0  0  0  0  0  0  0  0  0  0  0
  131.0381  132.1670  158.6643 C   0  0  0  0  0  0  0  0  0  0  0  0
  131.4679  135.0760  159.9305 N   0  0  0  0  0  0  0  0  0  0  0  0
  132.0584  134.9037  159.1805 H   0  0  0  0  0  0  0  0  0  0  0  0
  132.0010  135.6606  161.1633 C   0  0  0  0  0  0  0  0  0  0  0  0
  133.3254  136.4121  160.8939 C   0  0  0  0  0  0  0  0  0  0  0  0
  134.1790  136.1338  162.1091 C   0  0  0  0  0  0  0  0  0  0  0  0
  133.7116  135.1234  162.7905 C   0  0  0  0  0  0  0  0  0  0  0  0
  132.4682  134.5593  162.1432 C   0  0  0  0  0  0  0  0  0  0  0  0
  127.1070  135.6479  161.6852 C   0  0  0  0  0  0  0  0  0  0  0  0
  125.7211  135.2059  161.7768 N   0  0  0  0  0  0  0  0  0  0  0  0
  126.0838  132.7663  159.9150 H   0  0  0  0  0  0  0  0  0  0  0  0
  125.9836  131.9509  161.4924 H   0  0  0  0  0  0  0  0  0  0  0  0
  127.8720  133.1945  162.3455 H   0  0  0  0  0  0  0  0  0  0  0  0
  128.3436  132.5834  160.7391 H   0  0  0  0  0  0  0  0  0  0  0  0
  129.6925  135.4109  161.7134 H   0  0  0  0  0  0  0  0  0  0  0  0
  128.7694  134.4223  158.4570 H   0  0  0  0  0  0  0  0  0  0  0  0
  131.3775  133.9735  157.4766 H   0  0  0  0  0  0  0  0  0  0  0  0
  128.6709  132.6771  157.0257 H   0  0  0  0  0  0  0  0  0  0  0  0
  129.8392  133.2965  155.8185 H   0  0  0  0  0  0  0  0  0  0  0  0
  130.1619  130.7091  155.7571 H   0  0  0  0  0  0  0  0  0  0  0  0
  131.5504  130.1048  157.7803 H   0  0  0  0  0  0  0  0  0  0  0  0
  132.0482  132.3351  159.0375 H   0  0  0  0  0  0  0  0  0  0  0  0
  130.3616  131.9430  159.4891 H   0  0  0  0  0  0  0  0  0  0  0  0
  131.2670  136.3159  161.6324 H   0  0  0  0  0  0  0  0  0  0  0  0
  133.8058  136.0246  159.9955 H   0  0  0  0  0  0  0  0  0  0  0  0
  133.1417  137.4821  160.7958 H   0  0  0  0  0  0  0  0  0  0  0  0
  135.0602  136.6972  162.3789 H   0  0  0  0  0  0  0  0  0  0  0  0
  134.1551  134.7409  163.6980 H   0  0  0  0  0  0  0  0  0  0  0  0
  131.7017  134.3696  162.8945 H   0  0  0  0  0  0  0  0  0  0  0  0
  132.7025  133.6432  161.6010 H   0  0  0  0  0  0  0  0  0  0  0  0
  127.1378  136.6517  161.2616 H   0  0  0  0  0  0  0  0  0  0  0  0
  127.5466  135.6642  162.6825 H   0  0  0  0  0  0  0  0  0  0  0  0
  125.0563  135.8511  162.0642 H   0  0  0  0  0  0  0  0  0  0  0  0
  1  2  2  0
  2 23  1  0
  2  3  1  0
  3  4  1  0
  3 24  1  0
  3 25  1  0
  4  5  1  0
  4 26  1  0
  4 27  1  0
  5  6  1  6
  5  7  1  0
  5 22  1  0
  7 28  1  0
  8  7  1  0
  8  9  1  0
  8 15  2  0
  9 10  1  0
  9 29  1  0
 10 14  1  0
 10 11  1  0
 10 30  1  0
 11 12  1  0
 11 31  1  0
 11 32  1  0
 12 13  2  0
 12 33  1  0
 13 14  1  0
 13 34  1  0
 14 35  1  0
 14 36  1  0
 15 16  1  0
 15 17  1  0
 17 21  1  0
 17 18  1  0
 17 37  1  0
 18 19  1  0
 18 38  1  0
 18 39  1  0
 19 20  2  0
 19 40  1  0
 20 21  1  0
 20 41  1  0
 21 42  1  0
 21 43  1  0
 22 23  1  0
 22 44  1  0
 22 45  1  0
 23 46  1  0
M  CHG  1  15   1
M  END
>  <DOCK_score>  (1) 
-42.801701

>  <SMILES>  (1) 
O=C1CC[C@H](NC(NC2CC=CC2)=[NH+]C2CC=CC2)CN1

$$$$
