Nc1ccc(-c2c[nH]c(N[C@@H](SCc3ccccc3CBr)c3ccccc3)[nH+]2)cc1
     RDKit          3D

 54 57  0  0  1  0  0  0  0  0999 V2000
  130.9943  129.4156  152.5594 N   0  0  0  0  0  0  0  0  0  0  0  0
  130.8083  130.2037  153.6979 C   0  0  0  0  0  0  0  0  0  0  0  0
  130.0125  131.3413  153.6319 C   0  0  0  0  0  0  0  0  0  0  0  0
  129.8279  132.1209  154.7541 C   0  0  0  0  0  0  0  0  0  0  0  0
  130.4398  131.7671  155.9556 C   0  0  0  0  0  0  0  0  0  0  0  0
  130.2431  132.6046  157.1643 C   0  0  0  0  0  0  0  0  0  0  0  0
  129.6919  132.1991  158.3348 C   0  0  0  0  0  0  0  0  0  0  0  0
  129.7034  133.2848  159.1782 N   0  0  0  0  0  0  0  0  0  0  0  0
  129.3743  133.3074  160.0904 H   0  0  0  0  0  0  0  0  0  0  0  0
  130.2622  134.3217  158.4969 C   0  0  0  0  0  0  0  0  0  0  0  0
  130.4590  135.5994  158.9922 N   0  0  0  0  0  0  0  0  0  0  0  0
  130.0515  135.9250  160.3612 C   0  0  1  0  0  0  0  0  0  0  0  0
  130.5880  135.2853  161.0620 H   0  0  0  0  0  0  0  0  0  0  0  0
  130.4384  137.6624  160.7103 S   0  0  0  0  0  0  0  0  0  0  0  0
  130.4566  137.7203  162.5232 C   0  0  0  0  0  0  0  0  0  0  0  0
  130.2765  139.1444  162.9822 C   0  0  0  0  0  0  0  0  0  0  0  0
  131.3807  139.9548  163.1704 C   0  0  0  0  0  0  0  0  0  0  0  0
  131.2155  141.2609  163.5913 C   0  0  0  0  0  0  0  0  0  0  0  0
  129.9462  141.7571  163.8238 C   0  0  0  0  0  0  0  0  0  0  0  0
  128.8423  140.9472  163.6347 C   0  0  0  0  0  0  0  0  0  0  0  0
  129.0073  139.6419  163.2095 C   0  0  0  0  0  0  0  0  0  0  0  0
  127.8034  138.7604  162.9984 C   0  0  0  0  0  0  0  0  0  0  0  0
  127.3778  137.8204  164.6720 Br  0  0  0  0  0  0  0  0  0  0  0  0
  128.5686  135.7008  160.5107 C   0  0  0  0  0  0  0  0  0  0  0  0
  128.0463  135.3254  161.7343 C   0  0  0  0  0  0  0  0  0  0  0  0
  126.6856  135.1242  161.8723 C   0  0  0  0  0  0  0  0  0  0  0  0
  125.8486  135.2895  160.7849 C   0  0  0  0  0  0  0  0  0  0  0  0
  126.3715  135.6597  159.5601 C   0  0  0  0  0  0  0  0  0  0  0  0
  127.7317  135.8654  159.4229 C   0  0  0  0  0  0  0  0  0  0  0  0
  130.5781  133.9129  157.2921 N   0  0  0  0  0  0  0  0  0  0  0  0
  130.9879  134.4584  156.6026 H   0  0  0  0  0  0  0  0  0  0  0  0
  131.2415  130.6283  156.0182 C   0  0  0  0  0  0  0  0  0  0  0  0
  131.4191  129.8488  154.8949 C   0  0  0  0  0  0  0  0  0  0  0  0
  130.5682  129.6625  151.7238 H   0  0  0  0  0  0  0  0  0  0  0  0
  131.5496  128.6216  152.6048 H   0  0  0  0  0  0  0  0  0  0  0  0
  129.5387  131.6150  152.7007 H   0  0  0  0  0  0  0  0  0  0  0  0
  129.2094  133.0048  154.7023 H   0  0  0  0  0  0  0  0  0  0  0  0
  129.3151  131.2125  158.5611 H   0  0  0  0  0  0  0  0  0  0  0  0
  130.8630  136.2801  158.4316 H   0  0  0  0  0  0  0  0  0  0  0  0
  129.6449  137.1070  162.9145 H   0  0  0  0  0  0  0  0  0  0  0  0
  131.4096  137.3383  162.8894 H   0  0  0  0  0  0  0  0  0  0  0  0
  132.3722  139.5673  162.9889 H   0  0  0  0  0  0  0  0  0  0  0  0
  132.0782  141.8938  163.7390 H   0  0  0  0  0  0  0  0  0  0  0  0
  129.8172  142.7774  164.1534 H   0  0  0  0  0  0  0  0  0  0  0  0
  127.8508  141.3346  163.8166 H   0  0  0  0  0  0  0  0  0  0  0  0
  126.9526  139.3727  162.6991 H   0  0  0  0  0  0  0  0  0  0  0  0
  128.0192  138.0316  162.2171 H   0  0  0  0  0  0  0  0  0  0  0  0
  128.7008  135.1927  162.5830 H   0  0  0  0  0  0  0  0  0  0  0  0
  126.2771  134.8352  162.8294 H   0  0  0  0  0  0  0  0  0  0  0  0
  124.7858  135.1295  160.8922 H   0  0  0  0  0  0  0  0  0  0  0  0
  125.7175  135.7889  158.7103 H   0  0  0  0  0  0  0  0  0  0  0  0
  128.1403  136.1546  158.4659 H   0  0  0  0  0  0  0  0  0  0  0  0
  131.7198  130.3546  156.9471 H   0  0  0  0  0  0  0  0  0  0  0  0
  132.0367  128.9643  154.9439 H   0  0  0  0  0  0  0  0  0  0  0  0
  1  2  1  0
  1 34  1  0
  1 35  1  0
  2 33  2  0
  2  3  1  0
  3  4  2  0
  3 36  1  0
  4  5  1  0
  4 37  1  0
  5  6  1  0
  5 32  2  0
  6 30  1  0
  6  7  2  0
  7  8  1  0
  7 38  1  0
  8  9  1  0
  8 10  1  0
 10 11  1  0
 10 30  2  0
 11 12  1  0
 11 39  1  0
 12 13  1  1
 12 14  1  0
 12 24  1  0
 14 15  1  0
 15 16  1  0
 15 40  1  0
 15 41  1  0
 16 21  1  0
 16 17  2  0
 17 18  1  0
 17 42  1  0
 18 19  2  0
 18 43  1  0
 19 20  1  0
 19 44  1  0
 20 21  2  0
 20 45  1  0
 21 22  1  0
 22 23  1  0
 22 46  1  0
 22 47  1  0
 24 29  1  0
 24 25  2  0
 25 26  1  0
 25 48  1  0
 26 27  2  0
 26 49  1  0
 27 28  1  0
 27 50  1  0
 28 29  2  0
 28 51  1  0
 29 52  1  0
 30 31  1  0
 32 33  1  0
 32 53  1  0
 33 54  1  0
M  CHG  1  30   1
M  END
>  <DOCK_score>  (1) 
-57.505585

>  <SMILES>  (1) 
Nc1ccc(-c2c[nH]c(N[C@@H](SCc3ccccc3CBr)c3ccccc3)[nH+]2)cc1

$$$$
