CCc1ccc(-c2c[nH]c(N[C@@H](Cc3ccccn3)c3ccccc3)[nH+]2)cc1
     RDKit          3D

 53 56  0  0  1  0  0  0  0  0999 V2000
  130.6142  128.3918  151.7076 C   0  0  0  0  0  0  0  0  0  0  0  0
  131.6921  129.4177  152.0628 C   0  0  0  0  0  0  0  0  0  0  0  0
  131.2957  130.1483  153.3198 C   0  0  0  0  0  0  0  0  0  0  0  0
  131.6835  129.6575  154.5531 C   0  0  0  0  0  0  0  0  0  0  0  0
  131.3282  130.3253  155.7074 C   0  0  0  0  0  0  0  0  0  0  0  0
  130.5674  131.4905  155.6291 C   0  0  0  0  0  0  0  0  0  0  0  0
  130.1777  132.2097  156.8665 C   0  0  0  0  0  0  0  0  0  0  0  0
  129.4400  131.7031  157.8854 C   0  0  0  0  0  0  0  0  0  0  0  0
  129.3167  132.7000  158.8224 N   0  0  0  0  0  0  0  0  0  0  0  0
  128.8419  132.6400  159.6660 H   0  0  0  0  0  0  0  0  0  0  0  0
  129.9833  133.7877  158.3483 C   0  0  0  0  0  0  0  0  0  0  0  0
  130.0999  135.0066  158.9941 N   0  0  0  0  0  0  0  0  0  0  0  0
  129.0356  135.4658  159.8898 C   0  0  1  0  0  0  0  0  0  0  0  0
  128.9092  134.7490  160.7012 H   0  0  0  0  0  0  0  0  0  0  0  0
  129.4105  136.8313  160.4694 C   0  0  0  0  0  0  0  0  0  0  0  0
  128.6090  137.0831  161.7206 C   0  0  0  0  0  0  0  0  0  0  0  0
  128.2753  138.3785  162.0689 C   0  0  0  0  0  0  0  0  0  0  0  0
  127.5376  138.5993  163.2216 C   0  0  0  0  0  0  0  0  0  0  0  0
  127.1615  137.5040  163.9844 C   0  0  0  0  0  0  0  0  0  0  0  0
  127.5319  136.2378  163.5731 C   0  0  0  0  0  0  0  0  0  0  0  0
  128.2300  136.0649  162.4676 N   0  0  0  0  0  0  0  0  0  0  0  0
  127.7463  135.5843  159.1187 C   0  0  0  0  0  0  0  0  0  0  0  0
  126.5374  135.3807  159.7578 C   0  0  0  0  0  0  0  0  0  0  0  0
  125.3546  135.4938  159.0514 C   0  0  0  0  0  0  0  0  0  0  0  0
  125.3809  135.8014  157.7039 C   0  0  0  0  0  0  0  0  0  0  0  0
  126.5899  135.9997  157.0637 C   0  0  0  0  0  0  0  0  0  0  0  0
  127.7727  135.8909  157.7711 C   0  0  0  0  0  0  0  0  0  0  0  0
  130.5014  133.4890  157.1820 N   0  0  0  0  0  0  0  0  0  0  0  0
  131.0297  134.0877  156.6312 H   0  0  0  0  0  0  0  0  0  0  0  0
  130.1746  131.9777  154.3838 C   0  0  0  0  0  0  0  0  0  0  0  0
  130.5404  131.3047  153.2357 C   0  0  0  0  0  0  0  0  0  0  0  0
  130.9009  127.8635  150.7984 H   0  0  0  0  0  0  0  0  0  0  0  0
  130.5093  127.6781  152.5247 H   0  0  0  0  0  0  0  0  0  0  0  0
  129.6647  128.9025  151.5471 H   0  0  0  0  0  0  0  0  0  0  0  0
  132.6413  128.9076  152.2228 H   0  0  0  0  0  0  0  0  0  0  0  0
  131.7968  130.1320  151.2452 H   0  0  0  0  0  0  0  0  0  0  0  0
  132.2689  128.7519  154.6128 H   0  0  0  0  0  0  0  0  0  0  0  0
  131.6355  129.9436  156.6698 H   0  0  0  0  0  0  0  0  0  0  0  0
  129.0281  130.7067  157.9480 H   0  0  0  0  0  0  0  0  0  0  0  0
  130.8865  135.5566  158.8535 H   0  0  0  0  0  0  0  0  0  0  0  0
  130.4734  136.8446  160.7098 H   0  0  0  0  0  0  0  0  0  0  0  0
  129.1939  137.6088  159.7366 H   0  0  0  0  0  0  0  0  0  0  0  0
  128.5856  139.2082  161.4509 H   0  0  0  0  0  0  0  0  0  0  0  0
  127.2620  139.6005  163.5183 H   0  0  0  0  0  0  0  0  0  0  0  0
  126.5861  137.6388  164.8883 H   0  0  0  0  0  0  0  0  0  0  0  0
  127.2429  135.3797  164.1617 H   0  0  0  0  0  0  0  0  0  0  0  0
  126.5170  135.1369  160.8097 H   0  0  0  0  0  0  0  0  0  0  0  0
  124.4100  135.3392  159.5517 H   0  0  0  0  0  0  0  0  0  0  0  0
  124.4568  135.8870  157.1516 H   0  0  0  0  0  0  0  0  0  0  0  0
  126.6105  136.2398  156.0110 H   0  0  0  0  0  0  0  0  0  0  0  0
  128.7171  136.0458  157.2710 H   0  0  0  0  0  0  0  0  0  0  0  0
  129.5848  132.8800  154.3173 H   0  0  0  0  0  0  0  0  0  0  0  0
  130.2363  131.6811  152.2702 H   0  0  0  0  0  0  0  0  0  0  0  0
  1  2  1  0
  1 32  1  0
  1 33  1  0
  1 34  1  0
  2  3  1  0
  2 35  1  0
  2 36  1  0
  3 31  2  0
  3  4  1  0
  4  5  2  0
  4 37  1  0
  5  6  1  0
  5 38  1  0
  6  7  1  0
  6 30  2  0
  7 28  1  0
  7  8  2  0
  8  9  1  0
  8 39  1  0
  9 10  1  0
  9 11  1  0
 11 12  1  0
 11 28  2  0
 12 13  1  0
 12 40  1  0
 13 14  1  1
 13 15  1  0
 13 22  1  0
 15 16  1  0
 15 41  1  0
 15 42  1  0
 16 21  1  0
 16 17  2  0
 17 18  1  0
 17 43  1  0
 18 19  2  0
 18 44  1  0
 19 20  1  0
 19 45  1  0
 20 21  2  0
 20 46  1  0
 22 27  1  0
 22 23  2  0
 23 24  1  0
 23 47  1  0
 24 25  2  0
 24 48  1  0
 25 26  1  0
 25 49  1  0
 26 27  2  0
 26 50  1  0
 27 51  1  0
 28 29  1  0
 30 31  1  0
 30 52  1  0
 31 53  1  0
M  CHG  1  28   1
M  END
>  <DOCK_score>  (1) 
-60.480476

>  <SMILES>  (1) 
CCc1ccc(-c2c[nH]c(N[C@@H](Cc3ccccn3)c3ccccc3)[nH+]2)cc1

$$$$
