Nc1ccc(-c2ccc(Nc3ccc(-c4n[nH]cc4C[NH2+]C[C@H]4CC5C=CC4CC5)o3)cc2)cc1
     RDKit          3D

 67 72  0  0  1  0  0  0  0  0999 V2000
  131.7104  139.0000  169.2042 N   0  0  0  0  0  0  0  0  0  0  0  0
  130.8705  138.5779  168.1719 C   0  0  0  0  0  0  0  0  0  0  0  0
  130.2606  139.5153  167.3462 C   0  0  0  0  0  0  0  0  0  0  0  0
  129.4309  139.1007  166.3261 C   0  0  0  0  0  0  0  0  0  0  0  0
  129.2037  137.7403  166.1230 C   0  0  0  0  0  0  0  0  0  0  0  0
  128.3111  137.2919  165.0266 C   0  0  0  0  0  0  0  0  0  0  0  0
  128.5300  136.0622  164.4069 C   0  0  0  0  0  0  0  0  0  0  0  0
  127.6989  135.6472  163.3885 C   0  0  0  0  0  0  0  0  0  0  0  0
  126.6430  136.4540  162.9791 C   0  0  0  0  0  0  0  0  0  0  0  0
  125.8027  136.0318  161.9470 N   0  0  0  0  0  0  0  0  0  0  0  0
  126.2966  135.2088  160.9414 C   0  0  0  0  0  0  0  0  0  0  0  0
  125.5807  134.2892  160.2469 C   0  0  0  0  0  0  0  0  0  0  0  0
  126.4639  133.6890  159.3283 C   0  0  0  0  0  0  0  0  0  0  0  0
  127.6794  134.2684  159.5144 C   0  0  0  0  0  0  0  0  0  0  0  0
  128.9140  133.9483  158.7685 C   0  0  0  0  0  0  0  0  0  0  0  0
  129.0304  133.0531  157.8076 N   0  0  0  0  0  0  0  0  0  0  0  0
  130.3597  133.0602  157.3658 N   0  0  0  0  0  0  0  0  0  0  0  0
  130.7290  132.5009  156.6646 H   0  0  0  0  0  0  0  0  0  0  0  0
  131.0368  133.9843  158.0812 C   0  0  0  0  0  0  0  0  0  0  0  0
  130.1777  134.5467  158.9578 C   0  0  0  0  0  0  0  0  0  0  0  0
  130.5079  135.6259  159.9563 C   0  0  0  0  0  0  0  0  0  0  0  0
  131.9289  135.9806  159.8421 N   0  0  0  0  0  0  0  0  0  0  0  0
  132.1178  136.3161  158.9093 H   0  0  0  0  0  0  0  0  0  0  0  0
  132.4948  135.1661  160.0275 H   0  0  0  0  0  0  0  0  0  0  0  0
  132.2509  137.0327  160.8153 C   0  0  0  0  0  0  0  0  0  0  0  0
  133.7309  137.4021  160.6962 C   0  0  1  0  0  0  0  0  0  0  0  0
  134.3194  136.4978  160.5414 H   0  0  0  0  0  0  0  0  0  0  0  0
  133.9184  138.3557  159.4953 C   0  0  0  0  0  0  0  0  0  0  0  0
  134.5168  139.6754  160.0015 C   0  0  2  0  0  0  0  0  0  0  0  0
  135.8022  139.3598  160.7519 C   0  0  0  0  0  0  0  0  0  0  0  0
  135.6321  138.5378  161.7848 C   0  0  0  0  0  0  0  0  0  0  0  0
  134.1899  138.0964  161.9859 C   0  0  1  0  0  0  0  0  0  0  0  0
  133.3364  139.3554  162.1857 C   0  0  0  0  0  0  0  0  0  0  0  0
  133.5321  140.3003  160.9979 C   0  0  0  0  0  0  0  0  0  0  0  0
  127.5637  135.1903  160.4931 O   0  0  0  0  0  0  0  0  0  0  0  0
  126.4262  137.6828  163.5922 C   0  0  0  0  0  0  0  0  0  0  0  0
  127.2517  138.0992  164.6146 C   0  0  0  0  0  0  0  0  0  0  0  0
  129.8122  136.8020  166.9557 C   0  0  0  0  0  0  0  0  0  0  0  0
  130.6458  137.2209  167.9709 C   0  0  0  0  0  0  0  0  0  0  0  0
  131.8679  139.9467  169.3450 H   0  0  0  0  0  0  0  0  0  0  0  0
  132.1363  138.3464  169.7808 H   0  0  0  0  0  0  0  0  0  0  0  0
  130.4366  140.5690  167.5042 H   0  0  0  0  0  0  0  0  0  0  0  0
  128.9570  139.8294  165.6851 H   0  0  0  0  0  0  0  0  0  0  0  0
  129.3501  135.4355  164.7245 H   0  0  0  0  0  0  0  0  0  0  0  0
  127.8678  134.6946  162.9084 H   0  0  0  0  0  0  0  0  0  0  0  0
  124.8745  136.3128  161.9317 H   0  0  0  0  0  0  0  0  0  0  0  0
  124.5321  134.0630  160.3718 H   0  0  0  0  0  0  0  0  0  0  0  0
  126.2222  132.9154  158.6147 H   0  0  0  0  0  0  0  0  0  0  0  0
  132.0831  134.2289  157.9727 H   0  0  0  0  0  0  0  0  0  0  0  0
  130.3037  135.2637  160.9639 H   0  0  0  0  0  0  0  0  0  0  0  0
  129.8966  136.5058  159.7559 H   0  0  0  0  0  0  0  0  0  0  0  0
  132.0468  136.6703  161.8229 H   0  0  0  0  0  0  0  0  0  0  0  0
  131.6395  137.9125  160.6149 H   0  0  0  0  0  0  0  0  0  0  0  0
  132.9551  138.5508  159.0242 H   0  0  0  0  0  0  0  0  0  0  0  0
  134.5939  137.9062  158.7675 H   0  0  0  0  0  0  0  0  0  0  0  0
  134.7106  140.3552  159.1718 H   0  0  0  0  0  0  0  0  0  0  0  0
  136.7618  139.7736  160.4789 H   0  0  0  0  0  0  0  0  0  0  0  0
  136.4425  138.2138  162.4208 H   0  0  0  0  0  0  0  0  0  0  0  0
  134.0957  137.4261  162.8402 H   0  0  0  0  0  0  0  0  0  0  0  0
  133.6404  139.8583  163.1037 H   0  0  0  0  0  0  0  0  0  0  0  0
  132.2858  139.0743  162.2567 H   0  0  0  0  0  0  0  0  0  0  0  0
  133.9289  141.2517  161.3525 H   0  0  0  0  0  0  0  0  0  0  0  0
  132.5742  140.4677  160.5055 H   0  0  0  0  0  0  0  0  0  0  0  0
  125.6080  138.3097  163.2699 H   0  0  0  0  0  0  0  0  0  0  0  0
  127.0804  139.0519  165.0935 H   0  0  0  0  0  0  0  0  0  0  0  0
  129.6344  135.7478  166.8027 H   0  0  0  0  0  0  0  0  0  0  0  0
  131.1206  136.4943  168.6135 H   0  0  0  0  0  0  0  0  0  0  0  0
  1  2  1  0
  1 40  1  0
  1 41  1  0
  2 39  2  0
  2  3  1  0
  3  4  2  0
  3 42  1  0
  4  5  1  0
  4 43  1  0
  5  6  1  0
  5 38  2  0
  6 37  1  0
  6  7  2  0
  7  8  1  0
  7 44  1  0
  8  9  2  0
  8 45  1  0
  9 10  1  0
  9 36  1  0
 10 11  1  0
 10 46  1  0
 11 35  1  0
 11 12  2  0
 12 13  1  0
 12 47  1  0
 13 14  2  0
 13 48  1  0
 14 15  1  0
 14 35  1  0
 15 20  1  0
 15 16  2  0
 16 17  1  0
 17 18  1  0
 17 19  1  0
 19 20  2  0
 19 49  1  0
 20 21  1  0
 21 22  1  0
 21 50  1  0
 21 51  1  0
 22 23  1  0
 22 24  1  0
 22 25  1  0
 25 26  1  0
 25 52  1  0
 25 53  1  0
 26 27  1  6
 26 32  1  0
 26 28  1  0
 28 29  1  0
 28 54  1  0
 28 55  1  0
 29 34  1  0
 29 30  1  0
 29 56  1  6
 30 31  2  0
 30 57  1  0
 31 32  1  0
 31 58  1  0
 32 33  1  0
 32 59  1  1
 33 34  1  0
 33 60  1  0
 33 61  1  0
 34 62  1  0
 34 63  1  0
 36 37  2  0
 36 64  1  0
 37 65  1  0
 38 39  1  0
 38 66  1  0
 39 67  1  0
M  CHG  1  22   1
M  END
>  <DOCK_score>  (1) 
-51.020821

>  <SMILES>  (1) 
Nc1ccc(-c2ccc(Nc3ccc(-c4n[nH]cc4C[NH2+]C[C@H]4CC5C=CC4CC5)o3)cc2)cc1

$$$$
