CCn1c(NCCNc2nc(Cl)nc(NCC3=CCC(C)=CC3)n2)[nH+]c2ccccc21
     RDKit          3D

 59 62  0  0  1  0  0  0  0  0999 V2000
  128.4823  136.3141  156.7541 C   0  0  0  0  0  0  0  0  0  0  0  0
  129.0082  135.8840  158.1250 C   0  0  0  0  0  0  0  0  0  0  0  0
  128.4691  134.5644  158.4630 N   0  0  0  0  0  0  0  0  0  0  0  0
  129.0369  133.3581  158.1685 C   0  0  0  0  0  0  0  0  0  0  0  0
  130.2274  133.1864  157.4940 N   0  0  0  0  0  0  0  0  0  0  0  0
  130.7355  131.8366  157.2370 C   0  0  0  0  0  0  0  0  0  0  0  0
  131.6267  131.3972  158.4005 C   0  0  0  0  0  0  0  0  0  0  0  0
  130.8465  131.3974  159.6404 N   0  0  0  0  0  0  0  0  0  0  0  0
  130.7873  132.5358  160.4182 C   0  0  0  0  0  0  0  0  0  0  0  0
  130.0787  132.5367  161.5449 N   0  0  0  0  0  0  0  0  0  0  0  0
  130.0213  133.6278  162.2907 C   0  0  0  0  0  0  0  0  0  0  0  0
  129.0955  133.6250  163.7593 Cl  0  0  0  0  0  0  0  0  0  0  0  0
  130.6672  134.7212  161.9198 N   0  0  0  0  0  0  0  0  0  0  0  0
  131.3774  134.7265  160.7945 C   0  0  0  0  0  0  0  0  0  0  0  0
  132.0506  135.8674  160.4079 N   0  0  0  0  0  0  0  0  0  0  0  0
  131.9837  137.0736  161.2366 C   0  0  0  0  0  0  0  0  0  0  0  0
  133.2592  137.8611  161.0814 C   0  0  0  0  0  0  0  0  0  0  0  0
  133.3248  138.7590  160.1460 C   0  0  0  0  0  0  0  0  0  0  0  0
  134.5452  139.5961  159.9069 C   0  0  0  0  0  0  0  0  0  0  0  0
  135.4367  139.6112  161.1122 C   0  0  0  0  0  0  0  0  0  0  0  0
  136.4528  140.7161  161.2435 C   0  0  0  0  0  0  0  0  0  0  0  0
  135.3713  138.7131  162.0473 C   0  0  0  0  0  0  0  0  0  0  0  0
  134.3952  137.5781  162.0177 C   0  0  0  0  0  0  0  0  0  0  0  0
  131.4371  133.6321  160.0430 N   0  0  0  0  0  0  0  0  0  0  0  0
  128.2796  132.3883  158.6171 N   0  0  0  0  0  0  0  0  0  0  0  0
  128.4707  131.4417  158.5254 H   0  0  0  0  0  0  0  0  0  0  0  0
  127.1863  132.9105  159.2328 C   0  0  0  0  0  0  0  0  0  0  0  0
  126.0830  132.3423  159.8745 C   0  0  0  0  0  0  0  0  0  0  0  0
  125.1089  133.1556  160.4087 C   0  0  0  0  0  0  0  0  0  0  0  0
  125.2149  134.5355  160.3154 C   0  0  0  0  0  0  0  0  0  0  0  0
  126.2984  135.1121  159.6852 C   0  0  0  0  0  0  0  0  0  0  0  0
  127.2886  134.3082  159.1411 C   0  0  0  0  0  0  0  0  0  0  0  0
  127.3937  136.3623  156.7813 H   0  0  0  0  0  0  0  0  0  0  0  0
  128.8834  137.2959  156.5027 H   0  0  0  0  0  0  0  0  0  0  0  0
  128.7953  135.5901  156.0016 H   0  0  0  0  0  0  0  0  0  0  0  0
  128.6953  136.6080  158.8775 H   0  0  0  0  0  0  0  0  0  0  0  0
  130.0969  135.8357  158.0978 H   0  0  0  0  0  0  0  0  0  0  0  0
  130.7282  133.9593  157.1897 H   0  0  0  0  0  0  0  0  0  0  0  0
  131.3161  131.8364  156.3145 H   0  0  0  0  0  0  0  0  0  0  0  0
  129.8982  131.1455  157.1395 H   0  0  0  0  0  0  0  0  0  0  0  0
  132.4641  132.0882  158.4979 H   0  0  0  0  0  0  0  0  0  0  0  0
  132.0048  130.3930  158.2093 H   0  0  0  0  0  0  0  0  0  0  0  0
  130.3714  130.5974  159.9148 H   0  0  0  0  0  0  0  0  0  0  0  0
  132.5681  135.8708  159.5875 H   0  0  0  0  0  0  0  0  0  0  0  0
  131.1385  137.6850  160.9208 H   0  0  0  0  0  0  0  0  0  0  0  0
  131.8568  136.7900  162.2814 H   0  0  0  0  0  0  0  0  0  0  0  0
  132.4629  138.9095  159.5128 H   0  0  0  0  0  0  0  0  0  0  0  0
  135.0971  139.1895  159.0594 H   0  0  0  0  0  0  0  0  0  0  0  0
  134.2390  140.6168  159.6773 H   0  0  0  0  0  0  0  0  0  0  0  0
  136.0089  141.5563  161.7775 H   0  0  0  0  0  0  0  0  0  0  0  0
  137.3179  140.3504  161.7966 H   0  0  0  0  0  0  0  0  0  0  0  0
  136.7665  141.0412  160.2515 H   0  0  0  0  0  0  0  0  0  0  0  0
  136.0476  138.7901  162.8858 H   0  0  0  0  0  0  0  0  0  0  0  0
  134.0001  137.4175  163.0207 H   0  0  0  0  0  0  0  0  0  0  0  0
  134.9122  136.6761  161.6898 H   0  0  0  0  0  0  0  0  0  0  0  0
  125.9946  131.2687  159.9513 H   0  0  0  0  0  0  0  0  0  0  0  0
  124.2561  132.7159  160.9043 H   0  0  0  0  0  0  0  0  0  0  0  0
  124.4445  135.1626  160.7391 H   0  0  0  0  0  0  0  0  0  0  0  0
  126.3749  136.1871  159.6156 H   0  0  0  0  0  0  0  0  0  0  0  0
  1  2  1  0
  1 33  1  0
  1 34  1  0
  1 35  1  0
  2  3  1  0
  2 36  1  0
  2 37  1  0
  3 32  1  0
  3  4  1  0
  4  5  1  0
  4 25  2  0
  5  6  1  0
  5 38  1  0
  6  7  1  0
  6 39  1  0
  6 40  1  0
  7  8  1  0
  7 41  1  0
  7 42  1  0
  8  9  1  0
  8 43  1  0
  9 24  1  0
  9 10  2  0
 10 11  1  0
 11 12  1  0
 11 13  2  0
 13 14  1  0
 14 15  1  0
 14 24  2  0
 15 16  1  0
 15 44  1  0
 16 17  1  0
 16 45  1  0
 16 46  1  0
 17 23  1  0
 17 18  2  0
 18 19  1  0
 18 47  1  0
 19 20  1  0
 19 48  1  0
 19 49  1  0
 20 21  1  0
 20 22  2  0
 21 50  1  0
 21 51  1  0
 21 52  1  0
 22 23  1  0
 22 53  1  0
 23 54  1  0
 23 55  1  0
 25 26  1  0
 25 27  1  0
 27 32  2  0
 27 28  1  0
 28 29  2  0
 28 56  1  0
 29 30  1  0
 29 57  1  0
 30 31  2  0
 30 58  1  0
 31 32  1  0
 31 59  1  0
M  CHG  1  25   1
M  END
>  <DOCK_score>  (1) 
-59.748367

>  <SMILES>  (1) 
CCn1c(NCCNc2nc(Cl)nc(NCC3=CCC(C)=CC3)n2)[nH+]c2ccccc21

$$$$
