O=C1CC[C@H](NC(NC2CCCC2)=[NH+][C@H]2CCc3cc(O)ccc3C2)CN1
     RDKit          3D

 58 61  0  0  1  0  0  0  0  0999 V2000
  123.8798  133.7074  161.1967 O   0  0  0  0  0  0  0  0  0  0  0  0
  125.0498  133.9959  161.0598 C   0  0  0  0  0  0  0  0  0  0  0  0
  125.9611  132.9860  160.4238 C   0  0  0  0  0  0  0  0  0  0  0  0
  127.4196  133.3337  160.7316 C   0  0  0  0  0  0  0  0  0  0  0  0
  127.6397  134.8193  160.4219 C   0  0  2  0  0  0  0  0  0  0  0  0
  127.2967  135.0368  159.4105 H   0  0  0  0  0  0  0  0  0  0  0  0
  129.0641  135.1404  160.5410 N   0  0  0  0  0  0  0  0  0  0  0  0
  129.9825  134.4977  159.7452 C   0  0  0  0  0  0  0  0  0  0  0  0
  129.6207  134.0612  158.4926 N   0  0  0  0  0  0  0  0  0  0  0  0
  130.5995  133.3763  157.6446 C   0  0  0  0  0  0  0  0  0  0  0  0
  129.9340  132.9263  156.3275 C   0  0  0  0  0  0  0  0  0  0  0  0
  130.5880  131.5563  156.0203 C   0  0  0  0  0  0  0  0  0  0  0  0
  130.7214  130.9184  157.4255 C   0  0  0  0  0  0  0  0  0  0  0  0
  131.0999  132.0997  158.3427 C   0  0  0  0  0  0  0  0  0  0  0  0
  131.1963  134.3021  160.1781 N   0  0  0  0  0  0  0  0  0  0  0  0
  131.8443  133.8486  159.6165 H   0  0  0  0  0  0  0  0  0  0  0  0
  131.5818  134.7670  161.5128 C   0  0  1  0  0  0  0  0  0  0  0  0
  131.4531  135.8475  161.5765 H   0  0  0  0  0  0  0  0  0  0  0  0
  130.7109  134.0792  162.5706 C   0  0  0  0  0  0  0  0  0  0  0  0
  130.9658  134.7537  163.9170 C   0  0  0  0  0  0  0  0  0  0  0  0
  132.4431  134.8235  164.2034 C   0  0  0  0  0  0  0  0  0  0  0  0
  132.8360  135.0588  165.5139 C   0  0  0  0  0  0  0  0  0  0  0  0
  134.1784  135.1460  165.8403 C   0  0  0  0  0  0  0  0  0  0  0  0
  134.5556  135.3768  167.1252 O   0  0  0  0  0  0  0  0  0  0  0  0
  135.1372  134.9969  164.8481 C   0  0  0  0  0  0  0  0  0  0  0  0
  134.7440  134.7612  163.5482 C   0  0  0  0  0  0  0  0  0  0  0  0
  133.3966  134.6715  163.2213 C   0  0  0  0  0  0  0  0  0  0  0  0
  133.0414  134.4062  161.7815 C   0  0  0  0  0  0  0  0  0  0  0  0
  126.8404  135.6521  161.4249 C   0  0  0  0  0  0  0  0  0  0  0  0
  125.4583  135.1928  161.4827 N   0  0  0  0  0  0  0  0  0  0  0  0
  125.7344  131.9951  160.8173 H   0  0  0  0  0  0  0  0  0  0  0  0
  125.8081  132.9892  159.3445 H   0  0  0  0  0  0  0  0  0  0  0  0
  128.0802  132.7277  160.1114 H   0  0  0  0  0  0  0  0  0  0  0  0
  127.6275  133.1435  161.7845 H   0  0  0  0  0  0  0  0  0  0  0  0
  129.3591  135.8066  161.1813 H   0  0  0  0  0  0  0  0  0  0  0  0
  128.7174  134.2067  158.1705 H   0  0  0  0  0  0  0  0  0  0  0  0
  131.4382  134.0392  157.4325 H   0  0  0  0  0  0  0  0  0  0  0  0
  128.8583  132.8138  156.4624 H   0  0  0  0  0  0  0  0  0  0  0  0
  130.1472  133.6380  155.5300 H   0  0  0  0  0  0  0  0  0  0  0  0
  131.5680  131.6900  155.5622 H   0  0  0  0  0  0  0  0  0  0  0  0
  129.9412  130.9537  155.3825 H   0  0  0  0  0  0  0  0  0  0  0  0
  131.5089  130.1649  157.4293 H   0  0  0  0  0  0  0  0  0  0  0  0
  129.7728  130.4818  157.7379 H   0  0  0  0  0  0  0  0  0  0  0  0
  132.1818  132.1427  158.4687 H   0  0  0  0  0  0  0  0  0  0  0  0
  130.6154  131.9902  159.3128 H   0  0  0  0  0  0  0  0  0  0  0  0
  129.6592  134.1803  162.3027 H   0  0  0  0  0  0  0  0  0  0  0  0
  130.9745  133.0234  162.6333 H   0  0  0  0  0  0  0  0  0  0  0  0
  130.4739  134.1821  164.7041 H   0  0  0  0  0  0  0  0  0  0  0  0
  130.5555  135.7632  163.8961 H   0  0  0  0  0  0  0  0  0  0  0  0
  132.0887  135.1746  166.2849 H   0  0  0  0  0  0  0  0  0  0  0  0
  135.5132  135.4207  167.2523 H   0  0  0  0  0  0  0  0  0  0  0  0
  136.1867  135.0649  165.0935 H   0  0  0  0  0  0  0  0  0  0  0  0
  135.4905  134.6446  162.7764 H   0  0  0  0  0  0  0  0  0  0  0  0
  133.1967  133.3500  161.5617 H   0  0  0  0  0  0  0  0  0  0  0  0
  133.6843  135.0057  161.1369 H   0  0  0  0  0  0  0  0  0  0  0  0
  127.2927  135.5586  162.4123 H   0  0  0  0  0  0  0  0  0  0  0  0
  126.8599  136.6986  161.1208 H   0  0  0  0  0  0  0  0  0  0  0  0
  124.7941  135.7955  161.8522 H   0  0  0  0  0  0  0  0  0  0  0  0
  1  2  2  0
  2 30  1  0
  2  3  1  0
  3  4  1  0
  3 31  1  0
  3 32  1  0
  4  5  1  0
  4 33  1  0
  4 34  1  0
  5  6  1  6
  5  7  1  0
  5 29  1  0
  7 35  1  0
  8  7  1  0
  8  9  1  0
  8 15  2  0
  9 10  1  0
  9 36  1  0
 10 14  1  0
 10 11  1  0
 10 37  1  0
 11 12  1  0
 11 38  1  0
 11 39  1  0
 12 13  1  0
 12 40  1  0
 12 41  1  0
 13 14  1  0
 13 42  1  0
 13 43  1  0
 14 44  1  0
 14 45  1  0
 15 16  1  0
 15 17  1  0
 17 18  1  6
 17 28  1  0
 17 19  1  0
 19 20  1  0
 19 46  1  0
 19 47  1  0
 20 21  1  0
 20 48  1  0
 20 49  1  0
 21 27  2  0
 21 22  1  0
 22 23  2  0
 22 50  1  0
 23 24  1  0
 23 25  1  0
 24 51  1  0
 25 26  2  0
 25 52  1  0
 26 27  1  0
 26 53  1  0
 27 28  1  0
 28 54  1  0
 28 55  1  0
 29 30  1  0
 29 56  1  0
 29 57  1  0
 30 58  1  0
M  CHG  1  15   1
M  END
>  <DOCK_score>  (1) 
-41.951668

>  <SMILES>  (1) 
O=C1CC[C@H](NC(NC2CCCC2)=[NH+][C@H]2CCc3cc(O)ccc3C2)CN1

$$$$
