O[C@@H]1CCc2cccc(Nc3[nH]cc(C4CC4)[nH+]3)c2C1
     RDKit          3D

 40 43  0  0  1  0  0  0  0  0999 V2000
  126.2262  135.3861  160.6962 O   0  0  0  0  0  0  0  0  0  0  0  0
  127.4416  134.7837  161.1457 C   0  0  2  0  0  0  0  0  0  0  0  0
  127.2965  133.7101  161.2654 H   0  0  0  0  0  0  0  0  0  0  0  0
  127.8591  135.4011  162.4855 C   0  0  0  0  0  0  0  0  0  0  0  0
  129.0160  134.5818  163.0537 C   0  0  0  0  0  0  0  0  0  0  0  0
  130.1026  134.4142  162.0238 C   0  0  0  0  0  0  0  0  0  0  0  0
  131.3633  134.0355  162.4698 C   0  0  0  0  0  0  0  0  0  0  0  0
  132.4003  133.8525  161.5781 C   0  0  0  0  0  0  0  0  0  0  0  0
  132.1865  134.0413  160.2267 C   0  0  0  0  0  0  0  0  0  0  0  0
  130.9333  134.4268  159.7770 C   0  0  0  0  0  0  0  0  0  0  0  0
  130.7154  134.6231  158.4105 N   0  0  0  0  0  0  0  0  0  0  0  0
  130.2943  133.5676  157.6173 C   0  0  0  0  0  0  0  0  0  0  0  0
  129.5312  132.5187  158.0280 N   0  0  0  0  0  0  0  0  0  0  0  0
  129.1840  132.3729  158.9218 H   0  0  0  0  0  0  0  0  0  0  0  0
  129.3446  131.7042  156.9346 C   0  0  0  0  0  0  0  0  0  0  0  0
  129.9922  132.2760  155.9049 C   0  0  0  0  0  0  0  0  0  0  0  0
  130.0654  131.7367  154.4996 C   0  0  0  0  0  0  0  0  0  0  0  0
  131.0964  130.6424  154.2157 C   0  0  0  0  0  0  0  0  0  0  0  0
  131.3186  132.0595  153.6835 C   0  0  0  0  0  0  0  0  0  0  0  0
  130.5638  133.4101  156.3429 N   0  0  0  0  0  0  0  0  0  0  0  0
  131.0929  134.0172  155.8021 H   0  0  0  0  0  0  0  0  0  0  0  0
  129.8860  134.6146  160.6805 C   0  0  0  0  0  0  0  0  0  0  0  0
  128.5514  135.0425  160.1288 C   0  0  0  0  0  0  0  0  0  0  0  0
  126.2872  136.3416  160.5611 H   0  0  0  0  0  0  0  0  0  0  0  0
  127.0181  135.3782  163.1783 H   0  0  0  0  0  0  0  0  0  0  0  0
  128.1799  136.4313  162.3315 H   0  0  0  0  0  0  0  0  0  0  0  0
  128.6487  133.5997  163.3517 H   0  0  0  0  0  0  0  0  0  0  0  0
  129.4235  135.0922  163.9264 H   0  0  0  0  0  0  0  0  0  0  0  0
  131.5331  133.8833  163.5254 H   0  0  0  0  0  0  0  0  0  0  0  0
  133.3759  133.5580  161.9359 H   0  0  0  0  0  0  0  0  0  0  0  0
  132.9930  133.8927  159.5238 H   0  0  0  0  0  0  0  0  0  0  0  0
  130.8589  135.4982  158.0173 H   0  0  0  0  0  0  0  0  0  0  0  0
  128.7811  130.7832  156.9078 H   0  0  0  0  0  0  0  0  0  0  0  0
  129.1165  131.6854  153.9657 H   0  0  0  0  0  0  0  0  0  0  0  0
  131.7216  130.3125  155.0453 H   0  0  0  0  0  0  0  0  0  0  0  0
  130.8257  129.8707  153.4949 H   0  0  0  0  0  0  0  0  0  0  0  0
  131.1942  132.2202  152.6125 H   0  0  0  0  0  0  0  0  0  0  0  0
  132.0902  132.6619  154.1629 H   0  0  0  0  0  0  0  0  0  0  0  0
  128.5837  136.1066  159.8951 H   0  0  0  0  0  0  0  0  0  0  0  0
  128.3425  134.4812  159.2181 H   0  0  0  0  0  0  0  0  0  0  0  0
  1  2  1  0
  1 24  1  0
  2  3  1  1
  2 23  1  0
  2  4  1  0
  4  5  1  0
  4 25  1  0
  4 26  1  0
  5  6  1  0
  5 27  1  0
  5 28  1  0
  6 22  2  0
  6  7  1  0
  7  8  2  0
  7 29  1  0
  8  9  1  0
  8 30  1  0
  9 10  2  0
  9 31  1  0
 10 11  1  0
 10 22  1  0
 11 32  1  0
 12 11  1  0
 12 20  2  0
 12 13  1  0
 13 14  1  0
 13 15  1  0
 15 16  2  0
 15 33  1  0
 16 17  1  0
 16 20  1  0
 17 19  1  0
 17 18  1  0
 17 34  1  0
 18 19  1  0
 18 35  1  0
 18 36  1  0
 19 37  1  0
 19 38  1  0
 20 21  1  0
 22 23  1  0
 23 39  1  0
 23 40  1  0
M  CHG  1  20   1
M  END
>  <DOCK_score>  (1) 
-43.579144

>  <SMILES>  (1) 
O[C@@H]1CCc2cccc(Nc3[nH]cc(C4CC4)[nH+]3)c2C1

$$$$
