F[C@@H]1C[C@@H]1C=CC[C@H](Nc1[nH]cc(-c2ccc(C(F)(F)F)cc2)[nH+]1)c1ccccc1
     RDKit          3D

 52 55  0  0  1  0  0  0  0  0999 V2000
  130.8702  134.7401  164.7578 F   0  0  0  0  0  0  0  0  0  0  0  0
  132.0388  135.4526  164.4686 C   0  0  2  0  0  0  0  0  0  0  0  0
  132.9720  134.9254  164.6670 H   0  0  0  0  0  0  0  0  0  0  0  0
  132.0189  136.9653  164.6975 C   0  0  0  0  0  0  0  0  0  0  0  0
  132.0067  136.4068  163.2731 C   0  0  2  0  0  0  0  0  0  0  0  0
  132.9189  136.5074  162.6848 H   0  0  0  0  0  0  0  0  0  0  0  0
  130.7187  136.5072  162.4973 C   0  0  0  0  0  0  0  0  0  0  0  0
  130.7449  136.7873  161.2178 C   0  0  0  0  0  0  0  0  0  0  0  0
  129.4568  136.8877  160.4420 C   0  0  0  0  0  0  0  0  0  0  0  0
  129.0958  135.5142  159.8728 C   0  0  2  0  0  0  0  0  0  0  0  0
  128.9735  134.8031  160.6897 H   0  0  0  0  0  0  0  0  0  0  0  0
  130.1669  135.0572  158.9839 N   0  0  0  0  0  0  0  0  0  0  0  0
  130.0631  133.8319  158.3481 C   0  0  0  0  0  0  0  0  0  0  0  0
  129.4049  132.7423  158.8293 N   0  0  0  0  0  0  0  0  0  0  0  0
  128.9279  132.6851  159.6720 H   0  0  0  0  0  0  0  0  0  0  0  0
  129.5401  131.7387  157.9011 C   0  0  0  0  0  0  0  0  0  0  0  0
  130.2763  132.2433  156.8803 C   0  0  0  0  0  0  0  0  0  0  0  0
  130.6758  131.5173  155.6500 C   0  0  0  0  0  0  0  0  0  0  0  0
  130.2716  131.9836  154.4003 C   0  0  0  0  0  0  0  0  0  0  0  0
  130.6509  131.3074  153.2586 C   0  0  0  0  0  0  0  0  0  0  0  0
  131.4213  130.1626  153.3534 C   0  0  0  0  0  0  0  0  0  0  0  0
  131.8262  129.4242  152.1037 C   0  0  0  0  0  0  0  0  0  0  0  0
  131.3088  130.0844  150.9840 F   0  0  0  0  0  0  0  0  0  0  0  0
  133.2219  129.3842  152.0178 F   0  0  0  0  0  0  0  0  0  0  0  0
  131.3241  128.1192  152.1489 F   0  0  0  0  0  0  0  0  0  0  0  0
  131.8205  129.6917  154.5916 C   0  0  0  0  0  0  0  0  0  0  0  0
  131.4518  130.3630  155.7397 C   0  0  0  0  0  0  0  0  0  0  0  0
  130.5826  133.5299  157.1832 N   0  0  0  0  0  0  0  0  0  0  0  0
  131.0997  134.1313  156.6250 H   0  0  0  0  0  0  0  0  0  0  0  0
  127.8078  135.6147  159.0970 C   0  0  0  0  0  0  0  0  0  0  0  0
  126.5990  135.4058  159.7340 C   0  0  0  0  0  0  0  0  0  0  0  0
  125.4172  135.5032  159.0236 C   0  0  0  0  0  0  0  0  0  0  0  0
  125.4450  135.7988  157.6735 C   0  0  0  0  0  0  0  0  0  0  0  0
  126.6540  136.0021  157.0352 C   0  0  0  0  0  0  0  0  0  0  0  0
  127.8355  135.9103  157.7468 C   0  0  0  0  0  0  0  0  0  0  0  0
  132.9391  137.4335  165.0466 H   0  0  0  0  0  0  0  0  0  0  0  0
  131.0953  137.4052  165.0734 H   0  0  0  0  0  0  0  0  0  0  0  0
  129.7741  136.3483  162.9960 H   0  0  0  0  0  0  0  0  0  0  0  0
  131.6894  136.9463  160.7190 H   0  0  0  0  0  0  0  0  0  0  0  0
  129.5791  137.5989  159.6251 H   0  0  0  0  0  0  0  0  0  0  0  0
  128.6598  137.2278  161.1034 H   0  0  0  0  0  0  0  0  0  0  0  0
  130.9489  135.6132  158.8410 H   0  0  0  0  0  0  0  0  0  0  0  0
  129.1369  130.7392  157.9709 H   0  0  0  0  0  0  0  0  0  0  0  0
  129.6664  132.8750  154.3253 H   0  0  0  0  0  0  0  0  0  0  0  0
  130.3416  131.6701  152.2895 H   0  0  0  0  0  0  0  0  0  0  0  0
  132.4218  128.7972  154.6599 H   0  0  0  0  0  0  0  0  0  0  0  0
  131.7644  129.9949  156.7057 H   0  0  0  0  0  0  0  0  0  0  0  0
  126.5777  135.1704  160.7880 H   0  0  0  0  0  0  0  0  0  0  0  0
  124.4725  135.3447  159.5224 H   0  0  0  0  0  0  0  0  0  0  0  0
  124.5218  135.8712  157.1175 H   0  0  0  0  0  0  0  0  0  0  0  0
  126.6756  136.2330  155.9802 H   0  0  0  0  0  0  0  0  0  0  0  0
  128.7801  136.0692  157.2481 H   0  0  0  0  0  0  0  0  0  0  0  0
  1  2  1  0
  2  3  1  6
  2  5  1  0
  2  4  1  0
  4  5  1  0
  4 36  1  0
  4 37  1  0
  5  6  1  6
  5  7  1  0
  7  8  2  0
  7 38  1  0
  8  9  1  0
  8 39  1  0
  9 10  1  0
  9 40  1  0
  9 41  1  0
 10 11  1  1
 10 12  1  0
 10 30  1  0
 12 42  1  0
 13 12  1  0
 13 28  2  0
 13 14  1  0
 14 15  1  0
 14 16  1  0
 16 17  2  0
 16 43  1  0
 17 18  1  0
 17 28  1  0
 18 27  1  0
 18 19  2  0
 19 20  1  0
 19 44  1  0
 20 21  2  0
 20 45  1  0
 21 22  1  0
 21 26  1  0
 22 23  1  0
 22 24  1  0
 22 25  1  0
 26 27  2  0
 26 46  1  0
 27 47  1  0
 28 29  1  0
 30 35  1  0
 30 31  2  0
 31 32  1  0
 31 48  1  0
 32 33  2  0
 32 49  1  0
 33 34  1  0
 33 50  1  0
 34 35  2  0
 34 51  1  0
 35 52  1  0
M  CHG  1  28   1
M  END
>  <DOCK_score>  (1) 
-58.534233

>  <SMILES>  (1) 
F[C@@H]1C[C@@H]1C=CC[C@H](Nc1[nH]cc(-c2ccc(C(F)(F)F)cc2)[nH+]1)c1ccccc1

$$$$
