Clc1ccc([C@H](Nc2[nH]cc(-c3ccc(SC4CC4)cc3)[nH+]2)c2ccccc2)cc1
     RDKit          3D

 53 57  0  0  1  0  0  0  0  0999 V2000
  129.7422  141.3922  161.9590 Cl  0  0  0  0  0  0  0  0  0  0  0  0
  129.4802  139.7837  161.3609 C   0  0  0  0  0  0  0  0  0  0  0  0
  128.7818  138.8662  162.1256 C   0  0  0  0  0  0  0  0  0  0  0  0
  128.5741  137.5855  161.6491 C   0  0  0  0  0  0  0  0  0  0  0  0
  129.0635  137.2214  160.4085 C   0  0  0  0  0  0  0  0  0  0  0  0
  128.8365  135.8248  159.8896 C   0  0  2  0  0  0  0  0  0  0  0  0
  128.7755  135.1310  160.7280 H   0  0  0  0  0  0  0  0  0  0  0  0
  129.9498  135.4408  159.0182 N   0  0  0  0  0  0  0  0  0  0  0  0
  129.9622  134.1920  158.4206 C   0  0  0  0  0  0  0  0  0  0  0  0
  129.3991  133.0635  158.9313 N   0  0  0  0  0  0  0  0  0  0  0  0
  128.9210  132.9896  159.7722 H   0  0  0  0  0  0  0  0  0  0  0  0
  129.6331  132.0472  158.0355 C   0  0  0  0  0  0  0  0  0  0  0  0
  130.3316  132.5845  157.0050 C   0  0  0  0  0  0  0  0  0  0  0  0
  130.8076  131.8600  155.8012 C   0  0  0  0  0  0  0  0  0  0  0  0
  130.9309  132.5316  154.5856 C   0  0  0  0  0  0  0  0  0  0  0  0
  131.3784  131.8578  153.4691 C   0  0  0  0  0  0  0  0  0  0  0  0
  131.6966  130.5067  153.5525 C   0  0  0  0  0  0  0  0  0  0  0  0
  132.2619  129.6461  152.1226 S   0  0  0  0  0  0  0  0  0  0  0  0
  130.7245  129.0291  151.3834 C   0  0  0  0  0  0  0  0  0  0  0  0
  130.6780  128.8924  149.8603 C   0  0  0  0  0  0  0  0  0  0  0  0
  129.8963  130.0108  150.5522 C   0  0  0  0  0  0  0  0  0  0  0  0
  131.5687  129.8338  154.7624 C   0  0  0  0  0  0  0  0  0  0  0  0
  131.1265  130.5052  155.8824 C   0  0  0  0  0  0  0  0  0  0  0  0
  130.5136  133.9030  157.2670 N   0  0  0  0  0  0  0  0  0  0  0  0
  130.9793  134.5314  156.6934 H   0  0  0  0  0  0  0  0  0  0  0  0
  127.5489  135.7826  159.1077 C   0  0  0  0  0  0  0  0  0  0  0  0
  126.3609  135.4831  159.7479 C   0  0  0  0  0  0  0  0  0  0  0  0
  125.1794  135.4486  159.0314 C   0  0  0  0  0  0  0  0  0  0  0  0
  125.1870  135.7046  157.6730 C   0  0  0  0  0  0  0  0  0  0  0  0
  126.3757  135.9990  157.0317 C   0  0  0  0  0  0  0  0  0  0  0  0
  127.5567  136.0376  157.7491 C   0  0  0  0  0  0  0  0  0  0  0  0
  129.7659  138.1361  159.6463 C   0  0  0  0  0  0  0  0  0  0  0  0
  129.9702  139.4184  160.1197 C   0  0  0  0  0  0  0  0  0  0  0  0
  128.3995  139.1505  163.0948 H   0  0  0  0  0  0  0  0  0  0  0  0
  128.0288  136.8692  162.2459 H   0  0  0  0  0  0  0  0  0  0  0  0
  130.6782  136.0614  158.8599 H   0  0  0  0  0  0  0  0  0  0  0  0
  129.3201  131.0182  158.1335 H   0  0  0  0  0  0  0  0  0  0  0  0
  130.6801  133.5800  154.5196 H   0  0  0  0  0  0  0  0  0  0  0  0
  131.4778  132.3785  152.5283 H   0  0  0  0  0  0  0  0  0  0  0  0
  130.1843  128.2876  151.9722 H   0  0  0  0  0  0  0  0  0  0  0  0
  131.5713  129.1734  149.3024 H   0  0  0  0  0  0  0  0  0  0  0  0
  130.1075  128.0610  149.4467 H   0  0  0  0  0  0  0  0  0  0  0  0
  128.8113  129.9153  150.5938 H   0  0  0  0  0  0  0  0  0  0  0  0
  130.2751  131.0278  150.4497 H   0  0  0  0  0  0  0  0  0  0  0  0
  131.8162  128.7843  154.8252 H   0  0  0  0  0  0  0  0  0  0  0  0
  131.0270  129.9821  156.8220 H   0  0  0  0  0  0  0  0  0  0  0  0
  126.3556  135.2795  160.8085 H   0  0  0  0  0  0  0  0  0  0  0  0
  124.2505  135.2191  159.5324 H   0  0  0  0  0  0  0  0  0  0  0  0
  124.2641  135.6750  157.1126 H   0  0  0  0  0  0  0  0  0  0  0  0
  126.3817  136.1988  155.9705 H   0  0  0  0  0  0  0  0  0  0  0  0
  128.4855  136.2675  157.2481 H   0  0  0  0  0  0  0  0  0  0  0  0
  130.1514  137.8497  158.6790 H   0  0  0  0  0  0  0  0  0  0  0  0
  130.5154  140.1342  159.5223 H   0  0  0  0  0  0  0  0  0  0  0  0
  1  2  1  0
  2 33  2  0
  2  3  1  0
  3  4  2  0
  3 34  1  0
  4  5  1  0
  4 35  1  0
  5  6  1  0
  5 32  2  0
  6  7  1  1
  6  8  1  0
  6 26  1  0
  8 36  1  0
  9  8  1  0
  9 24  2  0
  9 10  1  0
 10 11  1  0
 10 12  1  0
 12 13  2  0
 12 37  1  0
 13 14  1  0
 13 24  1  0
 14 23  1  0
 14 15  2  0
 15 16  1  0
 15 38  1  0
 16 17  2  0
 16 39  1  0
 17 18  1  0
 17 22  1  0
 18 19  1  0
 19 21  1  0
 19 20  1  0
 19 40  1  0
 20 21  1  0
 20 41  1  0
 20 42  1  0
 21 43  1  0
 21 44  1  0
 22 23  2  0
 22 45  1  0
 23 46  1  0
 24 25  1  0
 26 31  1  0
 26 27  2  0
 27 28  1  0
 27 47  1  0
 28 29  2  0
 28 48  1  0
 29 30  1  0
 29 49  1  0
 30 31  2  0
 30 50  1  0
 31 51  1  0
 32 33  1  0
 32 52  1  0
 33 53  1  0
M  CHG  1  24   1
M  END
>  <DOCK_score>  (1) 
-68.675201

>  <SMILES>  (1) 
Clc1ccc([C@H](Nc2[nH]cc(-c3ccc(SC4CC4)cc3)[nH+]2)c2ccccc2)cc1

$$$$
