Cc1c(N)cccc1NC[C@H](Cc1ccccc1)Nc1[nH]cc(-c2ccc(N)cc2)[nH+]1
     RDKit          3D

 60 63  0  0  1  0  0  0  0  0999 V2000
  127.4420  131.6059  159.9490 C   0  0  0  0  0  0  0  0  0  0  0  0
  126.7679  132.5248  160.9351 C   0  0  0  0  0  0  0  0  0  0  0  0
  125.6186  132.1134  161.5956 C   0  0  0  0  0  0  0  0  0  0  0  0
  125.0852  130.8467  161.3475 N   0  0  0  0  0  0  0  0  0  0  0  0
  124.9968  132.9650  162.5005 C   0  0  0  0  0  0  0  0  0  0  0  0
  125.5237  134.2185  162.7462 C   0  0  0  0  0  0  0  0  0  0  0  0
  126.6697  134.6293  162.0938 C   0  0  0  0  0  0  0  0  0  0  0  0
  127.2972  133.7821  161.1881 C   0  0  0  0  0  0  0  0  0  0  0  0
  128.4562  134.1984  160.5288 N   0  0  0  0  0  0  0  0  0  0  0  0
  129.2591  135.2931  161.0794 C   0  0  0  0  0  0  0  0  0  0  0  0
  130.7270  135.0899  160.6996 C   0  0  2  0  0  0  0  0  0  0  0  0
  131.0794  134.1415  161.1049 H   0  0  0  0  0  0  0  0  0  0  0  0
  131.5656  136.2334  161.2746 C   0  0  0  0  0  0  0  0  0  0  0  0
  131.8390  135.9714  162.7332 C   0  0  0  0  0  0  0  0  0  0  0  0
  130.9660  136.4433  163.6956 C   0  0  0  0  0  0  0  0  0  0  0  0
  131.2142  136.1990  165.0334 C   0  0  0  0  0  0  0  0  0  0  0  0
  132.3409  135.4919  165.4093 C   0  0  0  0  0  0  0  0  0  0  0  0
  133.2167  135.0246  164.4473 C   0  0  0  0  0  0  0  0  0  0  0  0
  132.9657  135.2644  163.1092 C   0  0  0  0  0  0  0  0  0  0  0  0
  130.8565  135.0755  159.2403 N   0  0  0  0  0  0  0  0  0  0  0  0
  130.7525  133.8811  158.5480 C   0  0  0  0  0  0  0  0  0  0  0  0
  130.5266  132.6599  159.1038 N   0  0  0  0  0  0  0  0  0  0  0  0
  130.4104  132.4709  160.0481 H   0  0  0  0  0  0  0  0  0  0  0  0
  130.4935  131.7433  158.0796 C   0  0  0  0  0  0  0  0  0  0  0  0
  130.7002  132.4311  156.9296 C   0  0  0  0  0  0  0  0  0  0  0  0
  130.7485  131.8538  155.5638 C   0  0  0  0  0  0  0  0  0  0  0  0
  130.3432  132.6158  154.4692 C   0  0  0  0  0  0  0  0  0  0  0  0
  130.3939  132.0790  153.2000 C   0  0  0  0  0  0  0  0  0  0  0  0
  130.8378  130.7753  153.0130 C   0  0  0  0  0  0  0  0  0  0  0  0
  130.8828  130.2315  151.7270 N   0  0  0  0  0  0  0  0  0  0  0  0
  131.2373  130.0118  154.1036 C   0  0  0  0  0  0  0  0  0  0  0  0
  131.1937  130.5465  155.3739 C   0  0  0  0  0  0  0  0  0  0  0  0
  130.8501  133.7411  157.2483 N   0  0  0  0  0  0  0  0  0  0  0  0
  131.0068  134.4595  156.6155 H   0  0  0  0  0  0  0  0  0  0  0  0
  128.1769  130.9911  160.4689 H   0  0  0  0  0  0  0  0  0  0  0  0
  126.6957  130.9633  159.4822 H   0  0  0  0  0  0  0  0  0  0  0  0
  127.9415  132.1988  159.1827 H   0  0  0  0  0  0  0  0  0  0  0  0
  124.2802  130.5609  161.8072 H   0  0  0  0  0  0  0  0  0  0  0  0
  125.5196  130.2526  160.7156 H   0  0  0  0  0  0  0  0  0  0  0  0
  124.1005  132.6467  163.0122 H   0  0  0  0  0  0  0  0  0  0  0  0
  125.0383  134.8784  163.4501 H   0  0  0  0  0  0  0  0  0  0  0  0
  127.0790  135.6097  162.2880 H   0  0  0  0  0  0  0  0  0  0  0  0
  128.7294  133.7626  159.7063 H   0  0  0  0  0  0  0  0  0  0  0  0
  129.1627  135.3038  162.1651 H   0  0  0  0  0  0  0  0  0  0  0  0
  128.9068  136.2415  160.6740 H   0  0  0  0  0  0  0  0  0  0  0  0
  132.5099  136.2988  160.7340 H   0  0  0  0  0  0  0  0  0  0  0  0
  131.0211  137.1716  161.1697 H   0  0  0  0  0  0  0  0  0  0  0  0
  130.0880  136.9996  163.4021 H   0  0  0  0  0  0  0  0  0  0  0  0
  130.5301  136.5644  165.7850 H   0  0  0  0  0  0  0  0  0  0  0  0
  132.5372  135.3048  166.4548 H   0  0  0  0  0  0  0  0  0  0  0  0
  134.0971  134.4725  164.7410 H   0  0  0  0  0  0  0  0  0  0  0  0
  133.6501  134.8996  162.3576 H   0  0  0  0  0  0  0  0  0  0  0  0
  131.0149  135.9028  158.7593 H   0  0  0  0  0  0  0  0  0  0  0  0
  130.3336  130.6793  158.1734 H   0  0  0  0  0  0  0  0  0  0  0  0
  129.9936  133.6273  154.6145 H   0  0  0  0  0  0  0  0  0  0  0  0
  130.0842  132.6705  152.3511 H   0  0  0  0  0  0  0  0  0  0  0  0
  131.1928  129.3218  151.5957 H   0  0  0  0  0  0  0  0  0  0  0  0
  130.6042  130.7638  150.9654 H   0  0  0  0  0  0  0  0  0  0  0  0
  131.5819  128.9989  153.9560 H   0  0  0  0  0  0  0  0  0  0  0  0
  131.5046  129.9530  156.2209 H   0  0  0  0  0  0  0  0  0  0  0  0
  1  2  1  0
  1 35  1  0
  1 36  1  0
  1 37  1  0
  2  8  2  0
  2  3  1  0
  3  4  1  0
  3  5  2  0
  4 38  1  0
  4 39  1  0
  5  6  1  0
  5 40  1  0
  6  7  2  0
  6 41  1  0
  7  8  1  0
  7 42  1  0
  8  9  1  0
  9 10  1  0
  9 43  1  0
 10 11  1  0
 10 44  1  0
 10 45  1  0
 11 12  1  1
 11 13  1  0
 11 20  1  0
 13 14  1  0
 13 46  1  0
 13 47  1  0
 14 19  1  0
 14 15  2  0
 15 16  1  0
 15 48  1  0
 16 17  2  0
 16 49  1  0
 17 18  1  0
 17 50  1  0
 18 19  2  0
 18 51  1  0
 19 52  1  0
 20 53  1  0
 21 20  1  0
 21 33  2  0
 21 22  1  0
 22 23  1  0
 22 24  1  0
 24 25  2  0
 24 54  1  0
 25 26  1  0
 25 33  1  0
 26 32  1  0
 26 27  2  0
 27 28  1  0
 27 55  1  0
 28 29  2  0
 28 56  1  0
 29 30  1  0
 29 31  1  0
 30 57  1  0
 30 58  1  0
 31 32  2  0
 31 59  1  0
 32 60  1  0
 33 34  1  0
M  CHG  1  33   1
M  END
>  <DOCK_score>  (1) 
-57.628403

>  <SMILES>  (1) 
Cc1c(N)cccc1NC[C@H](Cc1ccccc1)Nc1[nH]cc(-c2ccc(N)cc2)[nH+]1

$$$$
