Nc1ccc(-c2c[nH]c(N[C@@H](Cc3ccccc3)c3ccc(Cl)cc3)[nH+]2)cc1
     RDKit          3D

 50 53  0  0  1  0  0  0  0  0999 V2000
  130.9453  129.8162  152.1582 N   0  0  0  0  0  0  0  0  0  0  0  0
  130.7938  130.4455  153.3962 C   0  0  0  0  0  0  0  0  0  0  0  0
  130.0182  131.5940  153.5002 C   0  0  0  0  0  0  0  0  0  0  0  0
  129.8672  132.2169  154.7211 C   0  0  0  0  0  0  0  0  0  0  0  0
  130.4931  131.6938  155.8515 C   0  0  0  0  0  0  0  0  0  0  0  0
  130.3321  132.3622  157.1661 C   0  0  0  0  0  0  0  0  0  0  0  0
  129.7943  131.8097  158.2815 C   0  0  0  0  0  0  0  0  0  0  0  0
  129.8401  132.7704  159.2639 N   0  0  0  0  0  0  0  0  0  0  0  0
  129.5277  132.6737  160.1772 H   0  0  0  0  0  0  0  0  0  0  0  0
  130.4050  133.8817  158.7186 C   0  0  0  0  0  0  0  0  0  0  0  0
  130.6331  135.0770  159.3788 N   0  0  0  0  0  0  0  0  0  0  0  0
  130.2556  135.2196  160.7870 C   0  0  1  0  0  0  0  0  0  0  0  0
  130.7929  134.4826  161.3838 H   0  0  0  0  0  0  0  0  0  0  0  0
  130.6130  136.6264  161.2710 C   0  0  0  0  0  0  0  0  0  0  0  0
  132.0843  136.6885  161.5916 C   0  0  0  0  0  0  0  0  0  0  0  0
  132.5274  136.3873  162.8658 C   0  0  0  0  0  0  0  0  0  0  0  0
  133.8770  136.4443  163.1597 C   0  0  0  0  0  0  0  0  0  0  0  0
  134.7835  136.8013  162.1791 C   0  0  0  0  0  0  0  0  0  0  0  0
  134.3399  137.1072  160.9061 C   0  0  0  0  0  0  0  0  0  0  0  0
  132.9909  137.0460  160.6110 C   0  0  0  0  0  0  0  0  0  0  0  0
  128.7719  134.9998  160.9341 C   0  0  0  0  0  0  0  0  0  0  0  0
  128.2648  134.4694  162.1057 C   0  0  0  0  0  0  0  0  0  0  0  0
  126.9037  134.2730  162.2433 C   0  0  0  0  0  0  0  0  0  0  0  0
  126.0497  134.5966  161.2039 C   0  0  0  0  0  0  0  0  0  0  0  0
  124.3407  134.3428  161.3731 Cl  0  0  0  0  0  0  0  0  0  0  0  0
  126.5584  135.1221  160.0295 C   0  0  0  0  0  0  0  0  0  0  0  0
  127.9192  135.3235  159.8952 C   0  0  0  0  0  0  0  0  0  0  0  0
  130.6925  133.6358  157.4635 N   0  0  0  0  0  0  0  0  0  0  0  0
  131.0999  134.2636  156.8466 H   0  0  0  0  0  0  0  0  0  0  0  0
  131.2752  130.5449  155.7437 C   0  0  0  0  0  0  0  0  0  0  0  0
  131.4184  129.9218  154.5219 C   0  0  0  0  0  0  0  0  0  0  0  0
  130.5095  130.1806  151.3722 H   0  0  0  0  0  0  0  0  0  0  0  0
  131.4865  129.0143  152.0848 H   0  0  0  0  0  0  0  0  0  0  0  0
  129.5338  131.9992  152.6241 H   0  0  0  0  0  0  0  0  0  0  0  0
  129.2642  133.1093  154.8016 H   0  0  0  0  0  0  0  0  0  0  0  0
  129.4043  130.8074  158.3792 H   0  0  0  0  0  0  0  0  0  0  0  0
  131.0430  135.8201  158.9089 H   0  0  0  0  0  0  0  0  0  0  0  0
  130.0362  136.8603  162.1658 H   0  0  0  0  0  0  0  0  0  0  0  0
  130.3806  137.3495  160.4894 H   0  0  0  0  0  0  0  0  0  0  0  0
  131.8192  136.1080  163.6319 H   0  0  0  0  0  0  0  0  0  0  0  0
  134.2232  136.2094  164.1554 H   0  0  0  0  0  0  0  0  0  0  0  0
  135.8379  136.8458  162.4088 H   0  0  0  0  0  0  0  0  0  0  0  0
  135.0477  137.3903  160.1411 H   0  0  0  0  0  0  0  0  0  0  0  0
  132.6447  137.2809  159.6153 H   0  0  0  0  0  0  0  0  0  0  0  0
  128.9319  134.2127  162.9153 H   0  0  0  0  0  0  0  0  0  0  0  0
  126.5071  133.8626  163.1602 H   0  0  0  0  0  0  0  0  0  0  0  0
  125.8924  135.3745  159.2177 H   0  0  0  0  0  0  0  0  0  0  0  0
  128.3164  135.7340  158.9787 H   0  0  0  0  0  0  0  0  0  0  0  0
  131.7647  130.1404  156.6173 H   0  0  0  0  0  0  0  0  0  0  0  0
  132.0206  129.0290  154.4388 H   0  0  0  0  0  0  0  0  0  0  0  0
  1  2  1  0
  1 32  1  0
  1 33  1  0
  2 31  2  0
  2  3  1  0
  3  4  2  0
  3 34  1  0
  4  5  1  0
  4 35  1  0
  5  6  1  0
  5 30  2  0
  6 28  1  0
  6  7  2  0
  7  8  1  0
  7 36  1  0
  8  9  1  0
  8 10  1  0
 10 11  1  0
 10 28  2  0
 11 12  1  0
 11 37  1  0
 12 13  1  1
 12 14  1  0
 12 21  1  0
 14 15  1  0
 14 38  1  0
 14 39  1  0
 15 20  1  0
 15 16  2  0
 16 17  1  0
 16 40  1  0
 17 18  2  0
 17 41  1  0
 18 19  1  0
 18 42  1  0
 19 20  2  0
 19 43  1  0
 20 44  1  0
 21 27  1  0
 21 22  2  0
 22 23  1  0
 22 45  1  0
 23 24  2  0
 23 46  1  0
 24 25  1  0
 24 26  1  0
 26 27  2  0
 26 47  1  0
 27 48  1  0
 28 29  1  0
 30 31  1  0
 30 49  1  0
 31 50  1  0
M  CHG  1  28   1
M  END
>  <DOCK_score>  (1) 
-59.344986

>  <SMILES>  (1) 
Nc1ccc(-c2c[nH]c(N[C@@H](Cc3ccccc3)c3ccc(Cl)cc3)[nH+]2)cc1

$$$$
