Cn1c(NCC2=CCOCC2)c[nH+]c1CN[C@@H](Cc1ccc(F)cc1)c1ccccc1
     RDKit          3D

 61 64  0  0  1  0  0  0  0  0999 V2000
  131.6317  132.5481  161.3164 C   0  0  0  0  0  0  0  0  0  0  0  0
  131.3271  132.9398  159.9380 N   0  0  0  0  0  0  0  0  0  0  0  0
  130.4044  132.3559  159.1104 C   0  0  0  0  0  0  0  0  0  0  0  0
  129.5760  131.2754  159.4177 N   0  0  0  0  0  0  0  0  0  0  0  0
  128.3633  131.0354  158.6316 C   0  0  0  0  0  0  0  0  0  0  0  0
  127.2068  131.7747  159.2537 C   0  0  0  0  0  0  0  0  0  0  0  0
  126.1766  131.0947  159.6610 C   0  0  0  0  0  0  0  0  0  0  0  0
  124.9732  131.7366  160.2908 C   0  0  0  0  0  0  0  0  0  0  0  0
  125.2769  133.0774  160.6808 O   0  0  0  0  0  0  0  0  0  0  0  0
  125.8884  133.8408  159.6334 C   0  0  0  0  0  0  0  0  0  0  0  0
  127.2861  133.2717  159.3739 C   0  0  0  0  0  0  0  0  0  0  0  0
  130.4515  133.0298  157.9368 C   0  0  0  0  0  0  0  0  0  0  0  0
  131.3765  133.9963  158.0475 N   0  0  0  0  0  0  0  0  0  0  0  0
  131.6135  134.6277  157.3503 H   0  0  0  0  0  0  0  0  0  0  0  0
  131.9071  133.9536  159.2377 C   0  0  0  0  0  0  0  0  0  0  0  0
  132.9832  134.8742  159.7533 C   0  0  0  0  0  0  0  0  0  0  0  0
  132.3634  136.0475  160.3835 N   0  0  0  0  0  0  0  0  0  0  0  0
  133.3844  136.9693  160.8990 C   0  0  1  0  0  0  0  0  0  0  0  0
  134.2107  137.0290  160.1906 H   0  0  0  0  0  0  0  0  0  0  0  0
  132.7705  138.3582  161.0849 C   0  0  0  0  0  0  0  0  0  0  0  0
  133.8677  139.3904  161.1304 C   0  0  0  0  0  0  0  0  0  0  0  0
  134.4373  139.7398  162.3407 C   0  0  0  0  0  0  0  0  0  0  0  0
  135.4475  140.6820  162.3830 C   0  0  0  0  0  0  0  0  0  0  0  0
  135.8807  141.2847  161.2142 C   0  0  0  0  0  0  0  0  0  0  0  0
  136.8636  142.2106  161.2551 F   0  0  0  0  0  0  0  0  0  0  0  0
  135.3054  140.9382  160.0033 C   0  0  0  0  0  0  0  0  0  0  0  0
  134.2997  139.9912  159.9627 C   0  0  0  0  0  0  0  0  0  0  0  0
  133.8943  136.4639  162.2240 C   0  0  0  0  0  0  0  0  0  0  0  0
  135.1952  136.7275  162.6102 C   0  0  0  0  0  0  0  0  0  0  0  0
  135.6615  136.2675  163.8275 C   0  0  0  0  0  0  0  0  0  0  0  0
  134.8297  135.5363  164.6546 C   0  0  0  0  0  0  0  0  0  0  0  0
  133.5304  135.2682  164.2663 C   0  0  0  0  0  0  0  0  0  0  0  0
  133.0627  135.7318  163.0508 C   0  0  0  0  0  0  0  0  0  0  0  0
  130.9879  133.0995  162.0016 H   0  0  0  0  0  0  0  0  0  0  0  0
  131.4589  131.4786  161.4368 H   0  0  0  0  0  0  0  0  0  0  0  0
  132.6750  132.7745  161.5364 H   0  0  0  0  0  0  0  0  0  0  0  0
  129.8031  130.6834  160.1519 H   0  0  0  0  0  0  0  0  0  0  0  0
  128.5150  131.3902  157.6122 H   0  0  0  0  0  0  0  0  0  0  0  0
  128.1457  129.9676  158.6161 H   0  0  0  0  0  0  0  0  0  0  0  0
  126.1880  130.0210  159.5451 H   0  0  0  0  0  0  0  0  0  0  0  0
  124.6730  131.1642  161.1685 H   0  0  0  0  0  0  0  0  0  0  0  0
  124.1565  131.7464  159.5690 H   0  0  0  0  0  0  0  0  0  0  0  0
  125.9676  134.8844  159.9380 H   0  0  0  0  0  0  0  0  0  0  0  0
  125.2879  133.7670  158.7267 H   0  0  0  0  0  0  0  0  0  0  0  0
  127.9446  133.5350  160.2018 H   0  0  0  0  0  0  0  0  0  0  0  0
  127.6822  133.6897  158.4485 H   0  0  0  0  0  0  0  0  0  0  0  0
  129.8467  132.8279  157.0651 H   0  0  0  0  0  0  0  0  0  0  0  0
  133.5917  134.3464  160.4875 H   0  0  0  0  0  0  0  0  0  0  0  0
  133.6128  135.1973  158.9243 H   0  0  0  0  0  0  0  0  0  0  0  0
  131.7431  136.5175  159.7413 H   0  0  0  0  0  0  0  0  0  0  0  0
  132.1024  138.5748  160.2513 H   0  0  0  0  0  0  0  0  0  0  0  0
  132.2077  138.3847  162.0179 H   0  0  0  0  0  0  0  0  0  0  0  0
  134.0957  139.2733  163.2527 H   0  0  0  0  0  0  0  0  0  0  0  0
  135.8952  140.9518  163.3280 H   0  0  0  0  0  0  0  0  0  0  0  0
  135.6422  141.4078  159.0910 H   0  0  0  0  0  0  0  0  0  0  0  0
  133.8508  139.7206  159.0184 H   0  0  0  0  0  0  0  0  0  0  0  0
  135.8461  137.2956  161.9623 H   0  0  0  0  0  0  0  0  0  0  0  0
  136.6764  136.4774  164.1311 H   0  0  0  0  0  0  0  0  0  0  0  0
  135.1948  135.1747  165.6045 H   0  0  0  0  0  0  0  0  0  0  0  0
  132.8805  134.6969  164.9125 H   0  0  0  0  0  0  0  0  0  0  0  0
  132.0477  135.5223  162.7473 H   0  0  0  0  0  0  0  0  0  0  0  0
  1  2  1  0
  1 34  1  0
  1 35  1  0
  1 36  1  0
  2 15  1  0
  2  3  1  0
  3  4  1  0
  3 12  2  0
  4  5  1  0
  4 37  1  0
  5  6  1  0
  5 38  1  0
  5 39  1  0
  6 11  1  0
  6  7  2  0
  7  8  1  0
  7 40  1  0
  8  9  1  0
  8 41  1  0
  8 42  1  0
  9 10  1  0
 10 11  1  0
 10 43  1  0
 10 44  1  0
 11 45  1  0
 11 46  1  0
 12 13  1  0
 12 47  1  0
 13 14  1  0
 13 15  2  0
 15 16  1  0
 16 17  1  0
 16 48  1  0
 16 49  1  0
 17 18  1  0
 17 50  1  0
 18 19  1  6
 18 20  1  0
 18 28  1  0
 20 21  1  0
 20 51  1  0
 20 52  1  0
 21 27  1  0
 21 22  2  0
 22 23  1  0
 22 53  1  0
 23 24  2  0
 23 54  1  0
 24 25  1  0
 24 26  1  0
 26 27  2  0
 26 55  1  0
 27 56  1  0
 28 33  1  0
 28 29  2  0
 29 30  1  0
 29 57  1  0
 30 31  2  0
 30 58  1  0
 31 32  1  0
 31 59  1  0
 32 33  2  0
 32 60  1  0
 33 61  1  0
M  CHG  1  13   1
M  END
>  <DOCK_score>  (1) 
-58.81752

>  <SMILES>  (1) 
Cn1c(NCC2=CCOCC2)c[nH+]c1CN[C@@H](Cc1ccc(F)cc1)c1ccccc1

$$$$
