Fc1ccc([C@H](Nc2[nH]cc(-c3ccc(C(F)(F)F)cc3)[nH+]2)c2cccc(F)c2)cc1
     RDKit          3D

 48 51  0  0  1  0  0  0  0  0999 V2000
  129.8988  140.9723  161.6093 F   0  0  0  0  0  0  0  0  0  0  0  0
  129.6328  139.7206  161.1764 C   0  0  0  0  0  0  0  0  0  0  0  0
  128.8857  138.8599  161.9625 C   0  0  0  0  0  0  0  0  0  0  0  0
  128.6145  137.5794  161.5189 C   0  0  0  0  0  0  0  0  0  0  0  0
  129.0885  137.1581  160.2905 C   0  0  0  0  0  0  0  0  0  0  0  0
  128.7916  135.7617  159.8076 C   0  0  2  0  0  0  0  0  0  0  0  0
  128.6924  135.0947  160.6639 H   0  0  0  0  0  0  0  0  0  0  0  0
  129.8864  135.2980  158.9516 N   0  0  0  0  0  0  0  0  0  0  0  0
  129.8364  134.0348  158.3873 C   0  0  0  0  0  0  0  0  0  0  0  0
  129.2239  132.9477  158.9304 N   0  0  0  0  0  0  0  0  0  0  0  0
  128.7478  132.9187  159.7750 H   0  0  0  0  0  0  0  0  0  0  0  0
  129.4040  131.8990  158.0617 C   0  0  0  0  0  0  0  0  0  0  0  0
  130.1207  132.3750  157.0135 C   0  0  0  0  0  0  0  0  0  0  0  0
  130.5549  131.5968  155.8276 C   0  0  0  0  0  0  0  0  0  0  0  0
  130.1397  131.9756  154.5521 C   0  0  0  0  0  0  0  0  0  0  0  0
  130.5471  131.2481  153.4524 C   0  0  0  0  0  0  0  0  0  0  0  0
  131.3661  130.1447  153.6145 C   0  0  0  0  0  0  0  0  0  0  0  0
  131.8078  129.3542  152.4097 C   0  0  0  0  0  0  0  0  0  0  0  0
  131.2656  129.9261  151.2529 F   0  0  0  0  0  0  0  0  0  0  0  0
  133.2040  129.3711  152.3270 F   0  0  0  0  0  0  0  0  0  0  0  0
  131.3629  128.0340  152.5293 F   0  0  0  0  0  0  0  0  0  0  0  0
  131.7765  129.7613  154.8782 C   0  0  0  0  0  0  0  0  0  0  0  0
  131.3799  130.4845  155.9846 C   0  0  0  0  0  0  0  0  0  0  0  0
  130.3755  133.6875  157.2443 N   0  0  0  0  0  0  0  0  0  0  0  0
  130.8750  134.2753  156.6562 H   0  0  0  0  0  0  0  0  0  0  0  0
  127.5059  135.7647  159.0217 C   0  0  0  0  0  0  0  0  0  0  0  0
  126.3016  135.5494  159.6657 C   0  0  0  0  0  0  0  0  0  0  0  0
  125.1215  135.5522  158.9461 C   0  0  0  0  0  0  0  0  0  0  0  0
  125.1441  135.7705  157.5814 C   0  0  0  0  0  0  0  0  0  0  0  0
  126.3493  135.9858  156.9353 C   0  0  0  0  0  0  0  0  0  0  0  0
  126.3728  136.1988  155.6014 F   0  0  0  0  0  0  0  0  0  0  0  0
  127.5305  135.9883  157.6582 C   0  0  0  0  0  0  0  0  0  0  0  0
  129.8392  138.0147  159.5072 C   0  0  0  0  0  0  0  0  0  0  0  0
  130.1074  139.2973  159.9466 C   0  0  0  0  0  0  0  0  0  0  0  0
  128.5153  139.1888  162.9222 H   0  0  0  0  0  0  0  0  0  0  0  0
  128.0317  136.9079  162.1319 H   0  0  0  0  0  0  0  0  0  0  0  0
  130.6462  135.8760  158.7802 H   0  0  0  0  0  0  0  0  0  0  0  0
  129.0435  130.8889  158.1888 H   0  0  0  0  0  0  0  0  0  0  0  0
  129.5006  132.8368  154.4247 H   0  0  0  0  0  0  0  0  0  0  0  0
  130.2257  131.5404  152.4636 H   0  0  0  0  0  0  0  0  0  0  0  0
  132.4119  128.8964  154.9990 H   0  0  0  0  0  0  0  0  0  0  0  0
  131.7043  130.1864  156.9706 H   0  0  0  0  0  0  0  0  0  0  0  0
  126.2830  135.3790  160.7320 H   0  0  0  0  0  0  0  0  0  0  0  0
  124.1814  135.3842  159.4504 H   0  0  0  0  0  0  0  0  0  0  0  0
  124.2219  135.7734  157.0194 H   0  0  0  0  0  0  0  0  0  0  0  0
  128.4709  136.1612  157.1560 H   0  0  0  0  0  0  0  0  0  0  0  0
  130.2132  137.6829  158.5499 H   0  0  0  0  0  0  0  0  0  0  0  0
  130.6905  139.9678  159.3327 H   0  0  0  0  0  0  0  0  0  0  0  0
  1  2  1  0
  2 34  2  0
  2  3  1  0
  3  4  2  0
  3 35  1  0
  4  5  1  0
  4 36  1  0
  5  6  1  0
  5 33  2  0
  6  7  1  1
  6  8  1  0
  6 26  1  0
  8 37  1  0
  9  8  1  0
  9 24  2  0
  9 10  1  0
 10 11  1  0
 10 12  1  0
 12 13  2  0
 12 38  1  0
 13 14  1  0
 13 24  1  0
 14 23  1  0
 14 15  2  0
 15 16  1  0
 15 39  1  0
 16 17  2  0
 16 40  1  0
 17 18  1  0
 17 22  1  0
 18 19  1  0
 18 20  1  0
 18 21  1  0
 22 23  2  0
 22 41  1  0
 23 42  1  0
 24 25  1  0
 26 32  1  0
 26 27  2  0
 27 28  1  0
 27 43  1  0
 28 29  2  0
 28 44  1  0
 29 30  1  0
 29 45  1  0
 30 31  1  0
 30 32  2  0
 32 46  1  0
 33 34  1  0
 33 47  1  0
 34 48  1  0
M  CHG  1  24   1
M  END
>  <DOCK_score>  (1) 
-60.470558

>  <SMILES>  (1) 
Fc1ccc([C@H](Nc2[nH]cc(-c3ccc(C(F)(F)F)cc3)[nH+]2)c2cccc(F)c2)cc1

$$$$
