C1=C(c2ccc(-c3c[nH]c(N[C@H](Cc4ccccc4)c4ccccc4)[nH+]3)cc2)CCC1
     RDKit          3D

 59 63  0  0  1  0  0  0  0  0999 V2000
  129.2412  130.3744  152.2613 C   0  0  0  0  0  0  0  0  0  0  0  0
  130.2578  130.1390  153.0723 C   0  0  0  0  0  0  0  0  0  0  0  0
  130.4859  130.8335  154.3556 C   0  0  0  0  0  0  0  0  0  0  0  0
  131.1356  130.1734  155.4016 C   0  0  0  0  0  0  0  0  0  0  0  0
  131.3482  130.8215  156.5974 C   0  0  0  0  0  0  0  0  0  0  0  0
  130.9150  132.1372  156.7648 C   0  0  0  0  0  0  0  0  0  0  0  0
  131.1439  132.8342  158.0527 C   0  0  0  0  0  0  0  0  0  0  0  0
  130.6722  132.4477  159.2648 C   0  0  0  0  0  0  0  0  0  0  0  0
  131.1178  133.3711  160.1786 N   0  0  0  0  0  0  0  0  0  0  0  0
  130.9438  133.3651  161.1329 H   0  0  0  0  0  0  0  0  0  0  0  0
  131.8493  134.2957  159.4985 C   0  0  0  0  0  0  0  0  0  0  0  0
  132.4753  135.3973  160.0561 N   0  0  0  0  0  0  0  0  0  0  0  0
  131.9123  136.0337  161.2496 C   0  0  2  0  0  0  0  0  0  0  0  0
  131.5480  135.2665  161.9328 H   0  0  0  0  0  0  0  0  0  0  0  0
  130.7535  136.9461  160.8424 C   0  0  0  0  0  0  0  0  0  0  0  0
  129.5150  136.1166  160.6206 C   0  0  0  0  0  0  0  0  0  0  0  0
  129.2442  135.6003  159.3672 C   0  0  0  0  0  0  0  0  0  0  0  0
  128.1052  134.8441  159.1626 C   0  0  0  0  0  0  0  0  0  0  0  0
  127.2426  134.5953  160.2137 C   0  0  0  0  0  0  0  0  0  0  0  0
  127.5135  135.1116  161.4670 C   0  0  0  0  0  0  0  0  0  0  0  0
  128.6497  135.8722  161.6705 C   0  0  0  0  0  0  0  0  0  0  0  0
  132.9783  136.8504  161.9334 C   0  0  0  0  0  0  0  0  0  0  0  0
  133.7739  136.2733  162.9055 C   0  0  0  0  0  0  0  0  0  0  0  0
  134.7546  137.0213  163.5298 C   0  0  0  0  0  0  0  0  0  0  0  0
  134.9338  138.3488  163.1882 C   0  0  0  0  0  0  0  0  0  0  0  0
  134.1349  138.9272  162.2197 C   0  0  0  0  0  0  0  0  0  0  0  0
  133.1570  138.1780  161.5925 C   0  0  0  0  0  0  0  0  0  0  0  0
  131.8586  133.9744  158.2280 N   0  0  0  0  0  0  0  0  0  0  0  0
  132.3066  134.4710  157.5254 H   0  0  0  0  0  0  0  0  0  0  0  0
  130.2613  132.7952  155.7224 C   0  0  0  0  0  0  0  0  0  0  0  0
  130.0526  132.1501  154.5242 C   0  0  0  0  0  0  0  0  0  0  0  0
  131.1597  129.0657  152.5056 C   0  0  0  0  0  0  0  0  0  0  0  0
  130.3060  128.3679  151.4195 C   0  0  0  0  0  0  0  0  0  0  0  0
  129.3125  129.4895  151.0385 C   0  0  0  0  0  0  0  0  0  0  0  0
  128.4646  131.1014  152.4476 H   0  0  0  0  0  0  0  0  0  0  0  0
  131.4706  129.1547  155.2722 H   0  0  0  0  0  0  0  0  0  0  0  0
  131.8509  130.3116  157.4059 H   0  0  0  0  0  0  0  0  0  0  0  0
  130.0631  131.5802  159.4715 H   0  0  0  0  0  0  0  0  0  0  0  0
  133.2866  135.7479  159.6565 H   0  0  0  0  0  0  0  0  0  0  0  0
  131.0097  137.4699  159.9217 H   0  0  0  0  0  0  0  0  0  0  0  0
  130.5676  137.6721  161.6339 H   0  0  0  0  0  0  0  0  0  0  0  0
  129.9202  135.7915  158.5469 H   0  0  0  0  0  0  0  0  0  0  0  0
  127.8914  134.4444  158.1823 H   0  0  0  0  0  0  0  0  0  0  0  0
  126.3547  134.0014  160.0546 H   0  0  0  0  0  0  0  0  0  0  0  0
  126.8372  134.9211  162.2874 H   0  0  0  0  0  0  0  0  0  0  0  0
  128.8611  136.2758  162.6497 H   0  0  0  0  0  0  0  0  0  0  0  0
  133.6313  135.2373  163.1750 H   0  0  0  0  0  0  0  0  0  0  0  0
  135.3790  136.5693  164.2862 H   0  0  0  0  0  0  0  0  0  0  0  0
  135.6982  138.9339  163.6777 H   0  0  0  0  0  0  0  0  0  0  0  0
  134.2748  139.9643  161.9528 H   0  0  0  0  0  0  0  0  0  0  0  0
  132.5327  138.6299  160.8358 H   0  0  0  0  0  0  0  0  0  0  0  0
  129.9223  133.8121  155.8543 H   0  0  0  0  0  0  0  0  0  0  0  0
  129.5499  132.6609  153.7162 H   0  0  0  0  0  0  0  0  0  0  0  0
  132.0498  129.5128  152.0631 H   0  0  0  0  0  0  0  0  0  0  0  0
  131.4380  128.3539  153.2828 H   0  0  0  0  0  0  0  0  0  0  0  0
  129.7814  127.5029  151.8251 H   0  0  0  0  0  0  0  0  0  0  0  0
  130.9205  128.0841  150.5652 H   0  0  0  0  0  0  0  0  0  0  0  0
  128.3316  129.0685  150.8172 H   0  0  0  0  0  0  0  0  0  0  0  0
  129.6861  130.0530  150.1836 H   0  0  0  0  0  0  0  0  0  0  0  0
  1 34  1  0
  1  2  2  0
  1 35  1  0
  2  3  1  0
  2 32  1  0
  3 31  1  0
  3  4  2  0
  4  5  1  0
  4 36  1  0
  5  6  2  0
  5 37  1  0
  6  7  1  0
  6 30  1  0
  7 28  1  0
  7  8  2  0
  8  9  1  0
  8 38  1  0
  9 10  1  0
  9 11  1  0
 11 12  1  0
 11 28  2  0
 12 13  1  0
 12 39  1  0
 13 14  1  1
 13 15  1  0
 13 22  1  0
 15 16  1  0
 15 40  1  0
 15 41  1  0
 16 21  1  0
 16 17  2  0
 17 18  1  0
 17 42  1  0
 18 19  2  0
 18 43  1  0
 19 20  1  0
 19 44  1  0
 20 21  2  0
 20 45  1  0
 21 46  1  0
 22 27  1  0
 22 23  2  0
 23 24  1  0
 23 47  1  0
 24 25  2  0
 24 48  1  0
 25 26  1  0
 25 49  1  0
 26 27  2  0
 26 50  1  0
 27 51  1  0
 28 29  1  0
 30 31  2  0
 30 52  1  0
 31 53  1  0
 32 33  1  0
 32 54  1  0
 32 55  1  0
 33 34  1  0
 33 56  1  0
 33 57  1  0
 34 58  1  0
 34 59  1  0
M  CHG  1  28   1
M  END
>  <DOCK_score>  (1) 
-58.218254

>  <SMILES>  (1) 
C1=C(c2ccc(-c3c[nH]c(N[C@H](Cc4ccccc4)c4ccccc4)[nH+]3)cc2)CCC1

$$$$
